version 3
run Basic-Test-0-20241216-20:22:31-24248
attr configname Basic-Test
attr datetime 20241216-20:22:31
attr datetimef 20241216-202231
attr experiment Basic-Test
attr inifile omnetpp-basic-network.ini
attr iterationvars ""
attr iterationvarsd ""
attr iterationvarsf ""
attr measurement ""
attr network BasicNetwork
attr processid 24248
attr repetition 0
attr replication #0
attr resultdir results/
attr runnumber 0
attr seedset 0
config image-path ../../inet4.5/images
config **.contentServer.numApps 1
config **.contentServer.app[0].typename ContentHostApp
config **.contentServer.app[0].hostedPrefixNames "\"ccnx://spacetime.com/\""
config **.contentServer.app[0].dataNamePrefix "\"info\""
config **.contentServer.app[0].segmentSize 1000byte
config **.contentServer.app[0].numSegmentsPerFile 5
config **.contentServer.app[0].cacheTime 2h
config **.wirelessNode[*].numApps 1
config **.wirelessNode[*].app[0].typename ContentDownloadApp
config **.wirelessNode[*].app[0].interContentDownloadInterval 100s
config **.wirelessNode[*].app[0].requestedPrefixNames "\"ccnx://spacetime.com/\""
config **.wirelessNode[*].app[0].dataNamePrefix "\"info\""
config **.wirelessNode[*].app[0].interestRetransmitTimeout 10s
config **.wirelessNode[*].btWirelessRange 300m
config **.wirelessNode[*].wlanWirelessRange 300m
config **.wirelessAccessRouter.wlanWirelessRange 300m
config **.constraintAreaMinX 0m
config **.constraintAreaMinY 0m
config **.constraintAreaMinZ 0m
config **.constraintAreaMaxX 300m
config **.constraintAreaMaxY 300m
config **.constraintAreaMaxZ 0m
config **.updateInterval 1s
config **.initFromDisplayString true
config network BasicNetwork
config sim-time-limit 24h
config repeat 1
config num-rngs 8
config seed-0-mt 1000
config seed-1-mt 2000
config seed-2-mt 3000
config seed-3-mt 4000
config seed-4-mt 5000
config seed-5-mt 6000
config seed-6-mt 7000
config seed-7-mt 8000
config **.deus.rng-0 1
config **.numen.rng-0 2
config **.app[*].rng-0 3
config **.fwd.rng-0 4
config **.wired[*].rng-0 5
config **.wireless[*].rng-0 6
config **.mobility.rng-0 7
config result-dir results/
config output-vector-file results//omnetpp-basic-network.ini-Basic-Test-0.vec
config output-scalar-file results//omnetpp-basic-network.ini-Basic-Test-0.sca
config **.vector-recording true
config **.scalar-recording true
config **.statistic-recording true
config record-eventlog false
config eventlog-file results//omnetpp-basic-network.ini-Basic-Test-0.elog

vector 0 BasicNetwork fwdNetworkCacheHitRatio:vector ETV
attr recordingmode vector
attr source fwdNetworkCacheHitRatio
vector 1 BasicNetwork fwdNetworkCacheMissRatio:vector ETV
attr recordingmode vector
attr source fwdNetworkCacheMissRatio
0	423	100	0
0	424	100	0
0	431	100.000384	0
0	432	100.000384	0
0	437	100.000768	0
0	443	100.001152	0
0	460	100.017536	0
0	463	100.01792	0
0	467	100.018304	0
0	476	100.02592	0
0	479	100.026304	0
0	486	100.026688	0
0	500	100.035072	0
0	503	100.035456	0
0	507	100.03584	0
0	516	100.043456	0
0	519	100.04384	0
0	526	100.044224	0
0	540	100.052608	0
0	543	100.052992	0
0	547	100.053376	0
0	556	100.060992	0
0	559	100.061376	0
0	566	100.06176	0
0	580	100.070144	0
0	583	100.070528	0
0	587	100.070912	0
0	596	100.078528	0
0	599	100.078912	0
0	606	100.079296	0
0	1026	200.08768	0
0	1029	200.088064	0
0	1033	200.088448	0
0	1038	200.096064	0
0	1041	200.096448	0
0	1048	200.096832	0
0	1062	200.105216	0
0	1065	200.1056	0
0	1069	200.105984	0
0	1078	200.1136	0
0	1081	200.113984	0
0	1088	200.114368	0
0	1102	200.122752	0
0	1105	200.123136	0
0	1109	200.12352	0
0	1118	200.131136	0
0	1121	200.13152	0
0	1128	200.131904	0
0	1142	200.140288	0
0	1145	200.140672	0
0	1149	200.141056	0
0	1158	200.148672	0
0	1161	200.149056	0
0	1168	200.14944	0
0	1182	200.157824	0
0	1185	200.158208	0
0	1189	200.158592	0
0	1198	200.166208	0
0	1201	200.166592	0
0	1208	200.166976	0
0	1628	300.17536	0
0	1631	300.175744	0
0	1635	300.176128	0
0	1640	300.183744	0
0	1643	300.184128	0
0	1650	300.184512	0
0	1664	300.192896	0
0	1667	300.19328	0
0	1671	300.193664	0
0	1680	300.20128	0
0	1683	300.201664	0
0	1690	300.202048	0
0	1704	300.210432	0
0	1707	300.210816	0
0	1711	300.2112	0
0	1720	300.218816	0
0	1723	300.2192	0
0	1730	300.219584	0
0	1744	300.227968	0
0	1747	300.228352	0
0	1751	300.228736	0
0	1760	300.236352	0
0	1763	300.236736	0
0	1770	300.23712	0
0	1784	300.245504	0
0	1787	300.245888	0
0	1791	300.246272	0
0	1800	300.253888	0
0	1803	300.254272	0
0	1810	300.254656	0
0	2230	400.26304	0
0	2233	400.263424	0
0	2237	400.263808	0
0	2242	400.271424	0
0	2245	400.271808	0
0	2252	400.272192	0
0	2266	400.280576	0
0	2269	400.28096	0
0	2273	400.281344	0
0	2282	400.28896	0
0	2285	400.289344	0
0	2292	400.289728	0
0	2306	400.298112	0
0	2309	400.298496	0
0	2313	400.29888	0
0	2322	400.306496	0
0	2325	400.30688	0
0	2332	400.307264	0
0	2346	400.315648	0
0	2349	400.316032	0
0	2353	400.316416	0
0	2362	400.324032	0
0	2365	400.324416	0
0	2372	400.3248	0
0	2386	400.333184	0
0	2389	400.333568	0
0	2393	400.333952	0
0	2402	400.341568	0
0	2405	400.341952	0
0	2412	400.342336	0
0	2832	500.35072	0
0	2835	500.351104	0
0	2839	500.351488	0
0	2844	500.359104	0
0	2847	500.359488	0
0	2854	500.359872	0
0	2868	500.368256	0
0	2871	500.36864	0
0	2875	500.369024	0
0	2884	500.37664	0
0	2887	500.377024	0
0	2894	500.377408	0
0	2908	500.385792	0
0	2911	500.386176	0
0	2915	500.38656	0
0	2924	500.394176	0
0	2927	500.39456	0
0	2934	500.394944	0
0	2948	500.403328	0
0	2951	500.403712	0
0	2955	500.404096	0
0	2964	500.411712	0
0	2967	500.412096	0
0	2974	500.41248	0
0	2988	500.420864	0
0	2991	500.421248	0
0	2995	500.421632	0
0	3004	500.429248	0
0	3007	500.429632	0
0	3014	500.430016	0
0	3434	600.4384	0
0	3437	600.438784	0
0	3441	600.439168	0
0	3446	600.446784	0
0	3449	600.447168	0
0	3456	600.447552	0
0	3470	600.455936	0
0	3473	600.45632	0
0	3477	600.456704	0
0	3486	600.46432	0
0	3489	600.464704	0
0	3496	600.465088	0
0	3510	600.473472	0
0	3513	600.473856	0
0	3517	600.47424	0
0	3526	600.481856	0
0	3529	600.48224	0
0	3536	600.482624	0
0	3550	600.491008	0
0	3553	600.491392	0
0	3557	600.491776	0
0	3566	600.499392	0
0	3569	600.499776	0
0	3576	600.50016	0
0	3590	600.508544	0
0	3593	600.508928	0
0	3597	600.509312	0
0	3606	600.516928	0
0	3609	600.517312	0
0	3616	600.517696	0
0	4036	700.52608	0
0	4039	700.526464	0
0	4043	700.526848	0
0	4048	700.534464	0
0	4051	700.534848	0
0	4058	700.535232	0
0	4072	700.543616	0
0	4075	700.544	0
0	4079	700.544384	0
0	4088	700.552	0
0	4091	700.552384	0
0	4098	700.552768	0
0	4112	700.561152	0
0	4115	700.561536	0
0	4119	700.56192	0
0	4128	700.569536	0
0	4131	700.56992	0
0	4138	700.570304	0
0	4152	700.578688	0
0	4155	700.579072	0
0	4159	700.579456	0
0	4168	700.587072	0
0	4171	700.587456	0
0	4178	700.58784	0
0	4192	700.596224	0
0	4195	700.596608	0
0	4199	700.596992	0
0	4208	700.604608	0
0	4211	700.604992	0
0	4218	700.605376	0
0	4638	800.61376	0
0	4641	800.614144	0
0	4645	800.614528	0
0	4650	800.622144	0
0	4653	800.622528	0
0	4660	800.622912	0
0	4674	800.631296	0
0	4677	800.63168	0
0	4681	800.632064	0
0	4690	800.63968	0
0	4693	800.640064	0
0	4700	800.640448	0
0	4714	800.648832	0
0	4717	800.649216	0
0	4721	800.6496	0
0	4730	800.657216	0
0	4733	800.6576	0
0	4740	800.657984	0
0	4754	800.666368	0
0	4757	800.666752	0
0	4761	800.667136	0
0	4770	800.674752	0
0	4773	800.675136	0
0	4780	800.67552	0
0	4794	800.683904	0
0	4797	800.684288	0
0	4801	800.684672	0
0	4810	800.692288	0
0	4813	800.692672	0
0	4820	800.693056	0
0	5240	900.70144	0
0	5243	900.701824	0
0	5247	900.702208	0
0	5252	900.709824	0
0	5255	900.710208	0
0	5262	900.710592	0
0	5276	900.718976	0
0	5279	900.71936	0
0	5283	900.719744	0
0	5292	900.72736	0
0	5295	900.727744	0
0	5302	900.728128	0
0	5316	900.736512	0
0	5319	900.736896	0
0	5323	900.73728	0
0	5332	900.744896	0
0	5335	900.74528	0
0	5342	900.745664	0
0	5356	900.754048	0
0	5359	900.754432	0
0	5363	900.754816	0
0	5372	900.762432	0
0	5375	900.762816	0
0	5382	900.7632	0
0	5396	900.771584	0
0	5399	900.771968	0
0	5403	900.772352	0
0	5412	900.779968	0
0	5415	900.780352	0
0	5422	900.780736	0
0	5842	1000.78912	0
0	5845	1000.789504	0
0	5849	1000.789888	0
0	5854	1000.797504	0
0	5857	1000.797888	0
0	5864	1000.798272	0
0	5878	1000.806656	0
0	5881	1000.80704	0
0	5885	1000.807424	0
0	5894	1000.81504	0
0	5897	1000.815424	0
0	5904	1000.815808	0
0	5918	1000.824192	0
0	5921	1000.824576	0
0	5925	1000.82496	0
0	5934	1000.832576	0
0	5937	1000.83296	0
0	5944	1000.833344	0
0	5958	1000.841728	0
0	5961	1000.842112	0
0	5965	1000.842496	0
0	5974	1000.850112	0
0	5977	1000.850496	0
0	5984	1000.85088	0
0	5998	1000.859264	0
0	6001	1000.859648	0
0	6005	1000.860032	0
0	6014	1000.867648	0
0	6017	1000.868032	0
0	6024	1000.868416	0
0	6444	1100.8768	0
0	6447	1100.877184	0
0	6451	1100.877568	0
0	6456	1100.885184	0
0	6459	1100.885568	0
0	6466	1100.885952	0
0	6480	1100.894336	0
0	6483	1100.89472	0
0	6487	1100.895104	0
0	6496	1100.90272	0
0	6499	1100.903104	0
0	6506	1100.903488	0
0	6520	1100.911872	0
0	6523	1100.912256	0
0	6527	1100.91264	0
0	6536	1100.920256	0
0	6539	1100.92064	0
0	6546	1100.921024	0
0	6560	1100.929408	0
0	6563	1100.929792	0
0	6567	1100.930176	0
0	6576	1100.937792	0
0	6579	1100.938176	0
0	6586	1100.93856	0
0	6600	1100.946944	0
0	6603	1100.947328	0
0	6607	1100.947712	0
0	6616	1100.955328	0
0	6619	1100.955712	0
0	6626	1100.956096	0
0	7046	1200.96448	0
0	7049	1200.964864	0
0	7053	1200.965248	0
0	7058	1200.972864	0
0	7061	1200.973248	0
0	7068	1200.973632	0
0	7082	1200.982016	0
0	7085	1200.9824	0
0	7089	1200.982784	0
0	7098	1200.9904	0
0	7101	1200.990784	0
0	7108	1200.991168	0
0	7122	1200.999552	0
0	7125	1200.999936	0
0	7133	1201.00032	0
0	7142	1201.007936	0
0	7145	1201.00832	0
0	7152	1201.008704	0
0	7166	1201.017088	0
0	7169	1201.017472	0
0	7173	1201.017856	0
0	7182	1201.025472	0
0	7185	1201.025856	0
0	7192	1201.02624	0
0	7206	1201.034624	0
0	7209	1201.035008	0
0	7213	1201.035392	0
0	7222	1201.043008	0
0	7225	1201.043392	0
0	7232	1201.043776	0
0	7652	1301.05216	0
0	7655	1301.052544	0
0	7659	1301.052928	0
0	7664	1301.060544	0
0	7667	1301.060928	0
0	7674	1301.061312	0
0	7688	1301.069696	0
0	7691	1301.07008	0
0	7695	1301.070464	0
0	7704	1301.07808	0
0	7707	1301.078464	0
0	7714	1301.078848	0
0	7728	1301.087232	0
0	7731	1301.087616	0
0	7735	1301.088	0
0	7744	1301.095616	0
0	7747	1301.096	0
0	7754	1301.096384	0
0	7768	1301.104768	0
0	7771	1301.105152	0
0	7775	1301.105536	0
0	7784	1301.113152	0
0	7787	1301.113536	0
0	7794	1301.11392	0
0	7808	1301.122304	0
0	7811	1301.122688	0
0	7815	1301.123072	0
0	7824	1301.130688	0
0	7827	1301.131072	0
0	7834	1301.131456	0
0	8254	1401.13984	0
0	8257	1401.140224	0
0	8261	1401.140608	0
0	8266	1401.148224	0
0	8269	1401.148608	0
0	8276	1401.148992	0
0	8290	1401.157376	0
0	8293	1401.15776	0
0	8297	1401.158144	0
0	8306	1401.16576	0
0	8309	1401.166144	0
0	8316	1401.166528	0
0	8330	1401.174912	0
0	8333	1401.175296	0
0	8337	1401.17568	0
0	8346	1401.183296	0
0	8349	1401.18368	0
0	8356	1401.184064	0
0	8370	1401.192448	0
0	8373	1401.192832	0
0	8377	1401.193216	0
0	8386	1401.200832	0
0	8389	1401.201216	0
0	8396	1401.2016	0
0	8410	1401.209984	0
0	8413	1401.210368	0
0	8417	1401.210752	0
0	8426	1401.218368	0
0	8429	1401.218752	0
0	8436	1401.219136	0
0	8856	1501.22752	0
0	8859	1501.227904	0
0	8863	1501.228288	0
0	8868	1501.235904	0
0	8871	1501.236288	0
0	8878	1501.236672	0
0	8892	1501.245056	0
0	8895	1501.24544	0
0	8899	1501.245824	0
0	8908	1501.25344	0
0	8911	1501.253824	0
0	8918	1501.254208	0
0	8932	1501.262592	0
0	8935	1501.262976	0
0	8939	1501.26336	0
0	8948	1501.270976	0
0	8951	1501.27136	0
0	8958	1501.271744	0
0	8972	1501.280128	0
0	8975	1501.280512	0
0	8979	1501.280896	0
0	8988	1501.288512	0
0	8991	1501.288896	0
0	8998	1501.28928	0
0	9012	1501.297664	0
0	9015	1501.298048	0
0	9019	1501.298432	0
0	9028	1501.306048	0
0	9031	1501.306432	0
0	9038	1501.306816	0
0	9458	1601.3152	0
0	9461	1601.315584	0
0	9465	1601.315968	0
0	9470	1601.323584	0
0	9473	1601.323968	0
0	9480	1601.324352	0
0	9494	1601.332736	0
0	9497	1601.33312	0
0	9501	1601.333504	0
0	9510	1601.34112	0
0	9513	1601.341504	0
0	9520	1601.341888	0
0	9534	1601.350272	0
0	9537	1601.350656	0
0	9541	1601.35104	0
0	9550	1601.358656	0
0	9553	1601.35904	0
0	9560	1601.359424	0
0	9574	1601.367808	0
0	9577	1601.368192	0
0	9581	1601.368576	0
0	9590	1601.376192	0
0	9593	1601.376576	0
0	9600	1601.37696	0
0	9614	1601.385344	0
0	9617	1601.385728	0
0	9621	1601.386112	0
0	9630	1601.393728	0
0	9633	1601.394112	0
0	9640	1601.394496	0
0	10060	1701.40288	0
0	10063	1701.403264	0
0	10067	1701.403648	0
0	10072	1701.411264	0
0	10075	1701.411648	0
0	10082	1701.412032	0
0	10096	1701.420416	0
0	10099	1701.4208	0
0	10103	1701.421184	0
0	10112	1701.4288	0
0	10115	1701.429184	0
0	10122	1701.429568	0
0	10136	1701.437952	0
0	10139	1701.438336	0
0	10143	1701.43872	0
0	10152	1701.446336	0
0	10155	1701.44672	0
0	10162	1701.447104	0
0	10176	1701.455488	0
0	10179	1701.455872	0
0	10183	1701.456256	0
0	10192	1701.463872	0
0	10195	1701.464256	0
0	10202	1701.46464	0
0	10216	1701.473024	0
0	10219	1701.473408	0
0	10223	1701.473792	0
0	10232	1701.481408	0
0	10235	1701.481792	0
0	10242	1701.482176	0
0	10662	1801.49056	0
0	10665	1801.490944	0
0	10669	1801.491328	0
0	10674	1801.498944	0
0	10677	1801.499328	0
0	10684	1801.499712	0
0	10698	1801.508096	0
0	10701	1801.50848	0
0	10705	1801.508864	0
0	10714	1801.51648	0
0	10717	1801.516864	0
0	10724	1801.517248	0
0	10738	1801.525632	0
0	10741	1801.526016	0
0	10745	1801.5264	0
0	10754	1801.534016	0
0	10757	1801.5344	0
0	10764	1801.534784	0
0	10778	1801.543168	0
0	10781	1801.543552	0
0	10785	1801.543936	0
0	10794	1801.551552	0
0	10797	1801.551936	0
0	10804	1801.55232	0
0	10818	1801.560704	0
0	10821	1801.561088	0
0	10825	1801.561472	0
0	10834	1801.569088	0
0	10837	1801.569472	0
0	10844	1801.569856	0
0	11264	1901.57824	0
0	11267	1901.578624	0
0	11271	1901.579008	0
0	11276	1901.586624	0
0	11279	1901.587008	0
0	11286	1901.587392	0
0	11300	1901.595776	0
0	11303	1901.59616	0
0	11307	1901.596544	0
0	11316	1901.60416	0
0	11319	1901.604544	0
0	11326	1901.604928	0
0	11340	1901.613312	0
0	11343	1901.613696	0
0	11347	1901.61408	0
0	11356	1901.621696	0
0	11359	1901.62208	0
0	11366	1901.622464	0
0	11380	1901.630848	0
0	11383	1901.631232	0
0	11387	1901.631616	0
0	11396	1901.639232	0
0	11399	1901.639616	0
0	11406	1901.64	0
0	11420	1901.648384	0
0	11423	1901.648768	0
0	11427	1901.649152	0
0	11436	1901.656768	0
0	11439	1901.657152	0
0	11446	1901.657536	0
0	11866	2001.66592	0
0	11869	2001.666304	0
0	11873	2001.666688	0
0	11878	2001.674304	0
0	11881	2001.674688	0
0	11888	2001.675072	0
0	11902	2001.683456	0
0	11905	2001.68384	0
0	11909	2001.684224	0
0	11918	2001.69184	0
0	11921	2001.692224	0
0	11928	2001.692608	0
0	11942	2001.700992	0
0	11945	2001.701376	0
0	11949	2001.70176	0
0	11958	2001.709376	0
0	11961	2001.70976	0
0	11968	2001.710144	0
0	11982	2001.718528	0
0	11985	2001.718912	0
0	11989	2001.719296	0
0	11998	2001.726912	0
0	12001	2001.727296	0
0	12008	2001.72768	0
0	12022	2001.736064	0
0	12025	2001.736448	0
0	12029	2001.736832	0
0	12038	2001.744448	0
0	12041	2001.744832	0
0	12048	2001.745216	0
0	12468	2101.7536	0
0	12471	2101.753984	0
0	12475	2101.754368	0
0	12480	2101.761984	0
0	12483	2101.762368	0
0	12490	2101.762752	0
0	12504	2101.771136	0
0	12507	2101.77152	0
0	12511	2101.771904	0
0	12520	2101.77952	0
0	12523	2101.779904	0
0	12530	2101.780288	0
0	12544	2101.788672	0
0	12547	2101.789056	0
0	12551	2101.78944	0
0	12560	2101.797056	0
0	12563	2101.79744	0
0	12570	2101.797824	0
0	12584	2101.806208	0
0	12587	2101.806592	0
0	12591	2101.806976	0
0	12600	2101.814592	0
0	12603	2101.814976	0
0	12610	2101.81536	0
0	12624	2101.823744	0
0	12627	2101.824128	0
0	12631	2101.824512	0
0	12640	2101.832128	0
0	12643	2101.832512	0
0	12650	2101.832896	0
0	13070	2201.84128	0
0	13073	2201.841664	0
0	13077	2201.842048	0
0	13082	2201.849664	0
0	13085	2201.850048	0
0	13092	2201.850432	0
0	13106	2201.858816	0
0	13109	2201.8592	0
0	13113	2201.859584	0
0	13122	2201.8672	0
0	13125	2201.867584	0
0	13132	2201.867968	0
0	13146	2201.876352	0
0	13149	2201.876736	0
0	13153	2201.87712	0
0	13162	2201.884736	0
0	13165	2201.88512	0
0	13172	2201.885504	0
0	13186	2201.893888	0
0	13189	2201.894272	0
0	13193	2201.894656	0
0	13202	2201.902272	0
0	13205	2201.902656	0
0	13212	2201.90304	0
0	13226	2201.911424	0
0	13229	2201.911808	0
0	13233	2201.912192	0
0	13242	2201.919808	0
0	13245	2201.920192	0
0	13252	2201.920576	0
0	13672	2301.92896	0
0	13675	2301.929344	0
0	13679	2301.929728	0
0	13684	2301.937344	0
0	13687	2301.937728	0
0	13694	2301.938112	0
0	13708	2301.946496	0
0	13711	2301.94688	0
0	13715	2301.947264	0
0	13724	2301.95488	0
0	13727	2301.955264	0
0	13734	2301.955648	0
0	13748	2301.964032	0
0	13751	2301.964416	0
0	13755	2301.9648	0
0	13764	2301.972416	0
0	13767	2301.9728	0
0	13774	2301.973184	0
0	13788	2301.981568	0
0	13791	2301.981952	0
0	13795	2301.982336	0
0	13804	2301.989952	0
0	13807	2301.990336	0
0	13814	2301.99072	0
0	13828	2301.999104	0
0	13831	2301.999488	0
0	13835	2301.999872	0
0	13848	2302.007488	0
0	13851	2302.007872	0
0	13858	2302.008256	0
0	14278	2402.01664	0
0	14281	2402.017024	0
0	14285	2402.017408	0
0	14290	2402.025024	0
0	14293	2402.025408	0
0	14300	2402.025792	0
0	14314	2402.034176	0
0	14317	2402.03456	0
0	14321	2402.034944	0
0	14330	2402.04256	0
0	14333	2402.042944	0
0	14340	2402.043328	0
0	14354	2402.051712	0
0	14357	2402.052096	0
0	14361	2402.05248	0
0	14370	2402.060096	0
0	14373	2402.06048	0
0	14380	2402.060864	0
0	14394	2402.069248	0
0	14397	2402.069632	0
0	14401	2402.070016	0
0	14410	2402.077632	0
0	14413	2402.078016	0
0	14420	2402.0784	0
0	14434	2402.086784	0
0	14437	2402.087168	0
0	14441	2402.087552	0
0	14450	2402.095168	0
0	14453	2402.095552	0
0	14460	2402.095936	0
0	14880	2502.10432	0
0	14883	2502.104704	0
0	14887	2502.105088	0
0	14892	2502.112704	0
0	14895	2502.113088	0
0	14902	2502.113472	0
0	14916	2502.121856	0
0	14919	2502.12224	0
0	14923	2502.122624	0
0	14932	2502.13024	0
0	14935	2502.130624	0
0	14942	2502.131008	0
0	14956	2502.139392	0
0	14959	2502.139776	0
0	14963	2502.14016	0
0	14972	2502.147776	0
0	14975	2502.14816	0
0	14982	2502.148544	0
0	14996	2502.156928	0
0	14999	2502.157312	0
0	15003	2502.157696	0
0	15012	2502.165312	0
0	15015	2502.165696	0
0	15022	2502.16608	0
0	15036	2502.174464	0
0	15039	2502.174848	0
0	15043	2502.175232	0
0	15052	2502.182848	0
0	15055	2502.183232	0
0	15062	2502.183616	0
0	15482	2602.192	0
0	15485	2602.192384	0
0	15489	2602.192768	0
0	15494	2602.200384	0
0	15497	2602.200768	0
0	15504	2602.201152	0
0	15518	2602.209536	0
0	15521	2602.20992	0
0	15525	2602.210304	0
0	15534	2602.21792	0
0	15537	2602.218304	0
0	15544	2602.218688	0
0	15558	2602.227072	0
0	15561	2602.227456	0
0	15565	2602.22784	0
0	15574	2602.235456	0
0	15577	2602.23584	0
0	15584	2602.236224	0
0	15598	2602.244608	0
0	15601	2602.244992	0
0	15605	2602.245376	0
0	15614	2602.252992	0
0	15617	2602.253376	0
0	15624	2602.25376	0
0	15638	2602.262144	0
0	15641	2602.262528	0
0	15645	2602.262912	0
0	15654	2602.270528	0
0	15657	2602.270912	0
0	15664	2602.271296	0
0	16084	2702.27968	0
0	16087	2702.280064	0
0	16091	2702.280448	0
0	16096	2702.288064	0
0	16099	2702.288448	0
0	16106	2702.288832	0
0	16120	2702.297216	0
0	16123	2702.2976	0
0	16127	2702.297984	0
0	16136	2702.3056	0
0	16139	2702.305984	0
0	16146	2702.306368	0
0	16160	2702.314752	0
0	16163	2702.315136	0
0	16167	2702.31552	0
0	16176	2702.323136	0
0	16179	2702.32352	0
0	16186	2702.323904	0
0	16200	2702.332288	0
0	16203	2702.332672	0
0	16207	2702.333056	0
0	16216	2702.340672	0
0	16219	2702.341056	0
0	16226	2702.34144	0
0	16240	2702.349824	0
0	16243	2702.350208	0
0	16247	2702.350592	0
0	16256	2702.358208	0
0	16259	2702.358592	0
0	16266	2702.358976	0
0	16686	2802.36736	0
0	16689	2802.367744	0
0	16693	2802.368128	0
0	16698	2802.375744	0
0	16701	2802.376128	0
0	16708	2802.376512	0
0	16722	2802.384896	0
0	16725	2802.38528	0
0	16729	2802.385664	0
0	16738	2802.39328	0
0	16741	2802.393664	0
0	16748	2802.394048	0
0	16762	2802.402432	0
0	16765	2802.402816	0
0	16769	2802.4032	0
0	16778	2802.410816	0
0	16781	2802.4112	0
0	16788	2802.411584	0
0	16802	2802.419968	0
0	16805	2802.420352	0
0	16809	2802.420736	0
0	16818	2802.428352	0
0	16821	2802.428736	0
0	16828	2802.42912	0
0	16842	2802.437504	0
0	16845	2802.437888	0
0	16849	2802.438272	0
0	16858	2802.445888	0
0	16861	2802.446272	0
0	16868	2802.446656	0
0	17288	2902.45504	0
0	17291	2902.455424	0
0	17295	2902.455808	0
0	17300	2902.463424	0
0	17303	2902.463808	0
0	17310	2902.464192	0
0	17324	2902.472576	0
0	17327	2902.47296	0
0	17331	2902.473344	0
0	17340	2902.48096	0
0	17343	2902.481344	0
0	17350	2902.481728	0
0	17364	2902.490112	0
0	17367	2902.490496	0
0	17371	2902.49088	0
0	17380	2902.498496	0
0	17383	2902.49888	0
0	17390	2902.499264	0
0	17404	2902.507648	0
0	17407	2902.508032	0
0	17411	2902.508416	0
0	17420	2902.516032	0
0	17423	2902.516416	0
0	17430	2902.5168	0
0	17444	2902.525184	0
0	17447	2902.525568	0
0	17451	2902.525952	0
0	17460	2902.533568	0
0	17463	2902.533952	0
0	17470	2902.534336	0
0	17890	3002.54272	0
0	17893	3002.543104	0
0	17897	3002.543488	0
0	17902	3002.551104	0
0	17905	3002.551488	0
0	17912	3002.551872	0
0	17926	3002.560256	0
0	17929	3002.56064	0
0	17933	3002.561024	0
0	17942	3002.56864	0
0	17945	3002.569024	0
0	17952	3002.569408	0
0	17966	3002.577792	0
0	17969	3002.578176	0
0	17973	3002.57856	0
0	17982	3002.586176	0
0	17985	3002.58656	0
0	17992	3002.586944	0
0	18006	3002.595328	0
0	18009	3002.595712	0
0	18013	3002.596096	0
0	18022	3002.603712	0
0	18025	3002.604096	0
0	18032	3002.60448	0
0	18046	3002.612864	0
0	18049	3002.613248	0
0	18053	3002.613632	0
0	18062	3002.621248	0
0	18065	3002.621632	0
0	18072	3002.622016	0
0	18492	3102.6304	0
0	18495	3102.630784	0
0	18499	3102.631168	0
0	18504	3102.638784	0
0	18507	3102.639168	0
0	18514	3102.639552	0
0	18528	3102.647936	0
0	18531	3102.64832	0
0	18535	3102.648704	0
0	18544	3102.65632	0
0	18547	3102.656704	0
0	18554	3102.657088	0
0	18568	3102.665472	0
0	18571	3102.665856	0
0	18575	3102.66624	0
0	18584	3102.673856	0
0	18587	3102.67424	0
0	18594	3102.674624	0
0	18608	3102.683008	0
0	18611	3102.683392	0
0	18615	3102.683776	0
0	18624	3102.691392	0
0	18627	3102.691776	0
0	18634	3102.69216	0
0	18648	3102.700544	0
0	18651	3102.700928	0
0	18655	3102.701312	0
0	18664	3102.708928	0
0	18667	3102.709312	0
0	18674	3102.709696	0
0	19094	3202.71808	0
0	19097	3202.718464	0
0	19101	3202.718848	0
0	19106	3202.726464	0
0	19109	3202.726848	0
0	19116	3202.727232	0
0	19130	3202.735616	0
0	19133	3202.736	0
0	19137	3202.736384	0
0	19146	3202.744	0
0	19149	3202.744384	0
0	19156	3202.744768	0
0	19170	3202.753152	0
0	19173	3202.753536	0
0	19177	3202.75392	0
0	19186	3202.761536	0
0	19189	3202.76192	0
0	19196	3202.762304	0
0	19210	3202.770688	0
0	19213	3202.771072	0
0	19217	3202.771456	0
0	19226	3202.779072	0
0	19229	3202.779456	0
0	19236	3202.77984	0
0	19250	3202.788224	0
0	19253	3202.788608	0
0	19257	3202.788992	0
0	19266	3202.796608	0
0	19269	3202.796992	0
0	19276	3202.797376	0
0	19696	3302.80576	0
0	19699	3302.806144	0
0	19703	3302.806528	0
0	19708	3302.814144	0
0	19711	3302.814528	0
0	19718	3302.814912	0
0	19732	3302.823296	0
0	19735	3302.82368	0
0	19739	3302.824064	0
0	19748	3302.83168	0
0	19751	3302.832064	0
0	19758	3302.832448	0
0	19772	3302.840832	0
0	19775	3302.841216	0
0	19779	3302.8416	0
0	19788	3302.849216	0
0	19791	3302.8496	0
0	19798	3302.849984	0
0	19812	3302.858368	0
0	19815	3302.858752	0
0	19819	3302.859136	0
0	19828	3302.866752	0
0	19831	3302.867136	0
0	19838	3302.86752	0
0	19852	3302.875904	0
0	19855	3302.876288	0
0	19859	3302.876672	0
0	19868	3302.884288	0
0	19871	3302.884672	0
0	19878	3302.885056	0
0	20298	3402.89344	0
0	20301	3402.893824	0
0	20305	3402.894208	0
0	20310	3402.901824	0
0	20313	3402.902208	0
0	20320	3402.902592	0
0	20334	3402.910976	0
0	20337	3402.91136	0
0	20341	3402.911744	0
0	20350	3402.91936	0
0	20353	3402.919744	0
0	20360	3402.920128	0
0	20374	3402.928512	0
0	20377	3402.928896	0
0	20381	3402.92928	0
0	20390	3402.936896	0
0	20393	3402.93728	0
0	20400	3402.937664	0
0	20414	3402.946048	0
0	20417	3402.946432	0
0	20421	3402.946816	0
0	20430	3402.954432	0
0	20433	3402.954816	0
0	20440	3402.9552	0
0	20454	3402.963584	0
0	20457	3402.963968	0
0	20461	3402.964352	0
0	20470	3402.971968	0
0	20473	3402.972352	0
0	20480	3402.972736	0
0	20900	3502.98112	0
0	20903	3502.981504	0
0	20907	3502.981888	0
0	20912	3502.989504	0
0	20915	3502.989888	0
0	20922	3502.990272	0
0	20936	3502.998656	0
0	20939	3502.99904	0
0	20943	3502.999424	0
0	20956	3503.00704	0
0	20959	3503.007424	0
0	20966	3503.007808	0
0	20980	3503.016192	0
0	20983	3503.016576	0
0	20987	3503.01696	0
0	20996	3503.024576	0
0	20999	3503.02496	0
0	21006	3503.025344	0
0	21020	3503.033728	0
0	21023	3503.034112	0
0	21027	3503.034496	0
0	21036	3503.042112	0
0	21039	3503.042496	0
0	21046	3503.04288	0
0	21060	3503.051264	0
0	21063	3503.051648	0
0	21067	3503.052032	0
0	21076	3503.059648	0
0	21079	3503.060032	0
0	21086	3503.060416	0
0	21506	3603.0688	0
0	21509	3603.069184	0
0	21513	3603.069568	0
0	21518	3603.077184	0
0	21521	3603.077568	0
0	21528	3603.077952	0
0	21542	3603.086336	0
0	21545	3603.08672	0
0	21549	3603.087104	0
0	21558	3603.09472	0
0	21561	3603.095104	0
0	21568	3603.095488	0
0	21582	3603.103872	0
0	21585	3603.104256	0
0	21589	3603.10464	0
0	21598	3603.112256	0
0	21601	3603.11264	0
0	21608	3603.113024	0
0	21622	3603.121408	0
0	21625	3603.121792	0
0	21629	3603.122176	0
0	21638	3603.129792	0
0	21641	3603.130176	0
0	21648	3603.13056	0
0	21662	3603.138944	0
0	21665	3603.139328	0
0	21669	3603.139712	0
0	21678	3603.147328	0
0	21681	3603.147712	0
0	21688	3603.148096	0
0	22108	3703.15648	0
0	22111	3703.156864	0
0	22115	3703.157248	0
0	22120	3703.164864	0
0	22123	3703.165248	0
0	22130	3703.165632	0
0	22144	3703.174016	0
0	22147	3703.1744	0
0	22151	3703.174784	0
0	22160	3703.1824	0
0	22163	3703.182784	0
0	22170	3703.183168	0
0	22184	3703.191552	0
0	22187	3703.191936	0
0	22191	3703.19232	0
0	22200	3703.199936	0
0	22203	3703.20032	0
0	22210	3703.200704	0
0	22224	3703.209088	0
0	22227	3703.209472	0
0	22231	3703.209856	0
0	22240	3703.217472	0
0	22243	3703.217856	0
0	22250	3703.21824	0
0	22264	3703.226624	0
0	22267	3703.227008	0
0	22271	3703.227392	0
0	22280	3703.235008	0
0	22283	3703.235392	0
0	22290	3703.235776	0
0	22710	3803.24416	0
0	22713	3803.244544	0
0	22717	3803.244928	0
0	22722	3803.252544	0
0	22725	3803.252928	0
0	22732	3803.253312	0
0	22746	3803.261696	0
0	22749	3803.26208	0
0	22753	3803.262464	0
0	22762	3803.27008	0
0	22765	3803.270464	0
0	22772	3803.270848	0
0	22786	3803.279232	0
0	22789	3803.279616	0
0	22793	3803.28	0
0	22802	3803.287616	0
0	22805	3803.288	0
0	22812	3803.288384	0
0	22826	3803.296768	0
0	22829	3803.297152	0
0	22833	3803.297536	0
0	22842	3803.305152	0
0	22845	3803.305536	0
0	22852	3803.30592	0
0	22866	3803.314304	0
0	22869	3803.314688	0
0	22873	3803.315072	0
0	22882	3803.322688	0
0	22885	3803.323072	0
0	22892	3803.323456	0
0	23312	3903.33184	0
0	23315	3903.332224	0
0	23319	3903.332608	0
0	23324	3903.340224	0
0	23327	3903.340608	0
0	23334	3903.340992	0
0	23348	3903.349376	0
0	23351	3903.34976	0
0	23355	3903.350144	0
0	23364	3903.35776	0
0	23367	3903.358144	0
0	23374	3903.358528	0
0	23388	3903.366912	0
0	23391	3903.367296	0
0	23395	3903.36768	0
0	23404	3903.375296	0
0	23407	3903.37568	0
0	23414	3903.376064	0
0	23428	3903.384448	0
0	23431	3903.384832	0
0	23435	3903.385216	0
0	23444	3903.392832	0
0	23447	3903.393216	0
0	23454	3903.3936	0
0	23468	3903.401984	0
0	23471	3903.402368	0
0	23475	3903.402752	0
0	23484	3903.410368	0
0	23487	3903.410752	0
0	23494	3903.411136	0
0	23914	4003.41952	0
0	23917	4003.419904	0
0	23921	4003.420288	0
0	23926	4003.427904	0
0	23929	4003.428288	0
0	23936	4003.428672	0
0	23950	4003.437056	0
0	23953	4003.43744	0
0	23957	4003.437824	0
0	23966	4003.44544	0
0	23969	4003.445824	0
0	23976	4003.446208	0
0	23990	4003.454592	0
0	23993	4003.454976	0
0	23997	4003.45536	0
0	24006	4003.462976	0
0	24009	4003.46336	0
0	24016	4003.463744	0
0	24030	4003.472128	0
0	24033	4003.472512	0
0	24037	4003.472896	0
0	24046	4003.480512	0
0	24049	4003.480896	0
0	24056	4003.48128	0
0	24070	4003.489664	0
0	24073	4003.490048	0
0	24077	4003.490432	0
0	24086	4003.498048	0
0	24089	4003.498432	0
0	24096	4003.498816	0
0	24516	4103.5072	0
0	24519	4103.507584	0
0	24523	4103.507968	0
0	24528	4103.515584	0
0	24531	4103.515968	0
0	24538	4103.516352	0
0	24552	4103.524736	0
0	24555	4103.52512	0
0	24559	4103.525504	0
0	24568	4103.53312	0
0	24571	4103.533504	0
0	24578	4103.533888	0
0	24592	4103.542272	0
0	24595	4103.542656	0
0	24599	4103.54304	0
0	24608	4103.550656	0
0	24611	4103.55104	0
0	24618	4103.551424	0
0	24632	4103.559808	0
0	24635	4103.560192	0
0	24639	4103.560576	0
0	24648	4103.568192	0
0	24651	4103.568576	0
0	24658	4103.56896	0
0	24672	4103.577344	0
0	24675	4103.577728	0
0	24679	4103.578112	0
0	24688	4103.585728	0
0	24691	4103.586112	0
0	24698	4103.586496	0
0	25118	4203.59488	0
0	25121	4203.595264	0
0	25125	4203.595648	0
0	25130	4203.603264	0
0	25133	4203.603648	0
0	25140	4203.604032	0
0	25154	4203.612416	0
0	25157	4203.6128	0
0	25161	4203.613184	0
0	25170	4203.6208	0
0	25173	4203.621184	0
0	25180	4203.621568	0
0	25194	4203.629952	0
0	25197	4203.630336	0
0	25201	4203.63072	0
0	25210	4203.638336	0
0	25213	4203.63872	0
0	25220	4203.639104	0
0	25234	4203.647488	0
0	25237	4203.647872	0
0	25241	4203.648256	0
0	25250	4203.655872	0
0	25253	4203.656256	0
0	25260	4203.65664	0
0	25274	4203.665024	0
0	25277	4203.665408	0
0	25281	4203.665792	0
0	25290	4203.673408	0
0	25293	4203.673792	0
0	25300	4203.674176	0
0	25720	4303.68256	0
0	25723	4303.682944	0
0	25727	4303.683328	0
0	25732	4303.690944	0
0	25735	4303.691328	0
0	25742	4303.691712	0
0	25756	4303.700096	0
0	25759	4303.70048	0
0	25763	4303.700864	0
0	25772	4303.70848	0
0	25775	4303.708864	0
0	25782	4303.709248	0
0	25796	4303.717632	0
0	25799	4303.718016	0
0	25803	4303.7184	0
0	25812	4303.726016	0
0	25815	4303.7264	0
0	25822	4303.726784	0
0	25836	4303.735168	0
0	25839	4303.735552	0
0	25843	4303.735936	0
0	25852	4303.743552	0
0	25855	4303.743936	0
0	25862	4303.74432	0
0	25876	4303.752704	0
0	25879	4303.753088	0
0	25883	4303.753472	0
0	25892	4303.761088	0
0	25895	4303.761472	0
0	25902	4303.761856	0
0	26322	4403.77024	0
0	26325	4403.770624	0
0	26329	4403.771008	0
0	26334	4403.778624	0
0	26337	4403.779008	0
0	26344	4403.779392	0
0	26358	4403.787776	0
0	26361	4403.78816	0
0	26365	4403.788544	0
0	26374	4403.79616	0
0	26377	4403.796544	0
0	26384	4403.796928	0
0	26398	4403.805312	0
0	26401	4403.805696	0
0	26405	4403.80608	0
0	26414	4403.813696	0
0	26417	4403.81408	0
0	26424	4403.814464	0
0	26438	4403.822848	0
0	26441	4403.823232	0
0	26445	4403.823616	0
0	26454	4403.831232	0
0	26457	4403.831616	0
0	26464	4403.832	0
0	26478	4403.840384	0
0	26481	4403.840768	0
0	26485	4403.841152	0
0	26494	4403.848768	0
0	26497	4403.849152	0
0	26504	4403.849536	0
0	26924	4503.85792	0
0	26927	4503.858304	0
0	26931	4503.858688	0
0	26936	4503.866304	0
0	26939	4503.866688	0
0	26946	4503.867072	0
0	26960	4503.875456	0
0	26963	4503.87584	0
0	26967	4503.876224	0
0	26976	4503.88384	0
0	26979	4503.884224	0
0	26986	4503.884608	0
0	27000	4503.892992	0
0	27003	4503.893376	0
0	27007	4503.89376	0
0	27016	4503.901376	0
0	27019	4503.90176	0
0	27026	4503.902144	0
0	27040	4503.910528	0
0	27043	4503.910912	0
0	27047	4503.911296	0
0	27056	4503.918912	0
0	27059	4503.919296	0
0	27066	4503.91968	0
0	27080	4503.928064	0
0	27083	4503.928448	0
0	27087	4503.928832	0
0	27096	4503.936448	0
0	27099	4503.936832	0
0	27106	4503.937216	0
0	27526	4603.9456	0
0	27529	4603.945984	0
0	27533	4603.946368	0
0	27538	4603.953984	0
0	27541	4603.954368	0
0	27548	4603.954752	0
0	27562	4603.963136	0
0	27565	4603.96352	0
0	27569	4603.963904	0
0	27578	4603.97152	0
0	27581	4603.971904	0
0	27588	4603.972288	0
0	27602	4603.980672	0
0	27605	4603.981056	0
0	27609	4603.98144	0
0	27618	4603.989056	0
0	27621	4603.98944	0
0	27628	4603.989824	0
0	27642	4603.998208	0
0	27645	4603.998592	0
0	27649	4603.998976	0
0	27662	4604.006592	0
0	27665	4604.006976	0
0	27672	4604.00736	0
0	27686	4604.015744	0
0	27689	4604.016128	0
0	27693	4604.016512	0
0	27702	4604.024128	0
0	27705	4604.024512	0
0	27712	4604.024896	0
0	28132	4704.03328	0
0	28135	4704.033664	0
0	28139	4704.034048	0
0	28144	4704.041664	0
0	28147	4704.042048	0
0	28154	4704.042432	0
0	28168	4704.050816	0
0	28171	4704.0512	0
0	28175	4704.051584	0
0	28184	4704.0592	0
0	28187	4704.059584	0
0	28194	4704.059968	0
0	28208	4704.068352	0
0	28211	4704.068736	0
0	28215	4704.06912	0
0	28224	4704.076736	0
0	28227	4704.07712	0
0	28234	4704.077504	0
0	28248	4704.085888	0
0	28251	4704.086272	0
0	28255	4704.086656	0
0	28264	4704.094272	0
0	28267	4704.094656	0
0	28274	4704.09504	0
0	28288	4704.103424	0
0	28291	4704.103808	0
0	28295	4704.104192	0
0	28304	4704.111808	0
0	28307	4704.112192	0
0	28314	4704.112576	0
0	28734	4804.12096	0
0	28737	4804.121344	0
0	28741	4804.121728	0
0	28746	4804.129344	0
0	28749	4804.129728	0
0	28756	4804.130112	0
0	28770	4804.138496	0
0	28773	4804.13888	0
0	28777	4804.139264	0
0	28786	4804.14688	0
0	28789	4804.147264	0
0	28796	4804.147648	0
0	28810	4804.156032	0
0	28813	4804.156416	0
0	28817	4804.1568	0
0	28826	4804.164416	0
0	28829	4804.1648	0
0	28836	4804.165184	0
0	28850	4804.173568	0
0	28853	4804.173952	0
0	28857	4804.174336	0
0	28866	4804.181952	0
0	28869	4804.182336	0
0	28876	4804.18272	0
0	28890	4804.191104	0
0	28893	4804.191488	0
0	28897	4804.191872	0
0	28906	4804.199488	0
0	28909	4804.199872	0
0	28916	4804.200256	0
0	29336	4904.20864	0
0	29339	4904.209024	0
0	29343	4904.209408	0
0	29348	4904.217024	0
0	29351	4904.217408	0
0	29358	4904.217792	0
0	29372	4904.226176	0
0	29375	4904.22656	0
0	29379	4904.226944	0
0	29388	4904.23456	0
0	29391	4904.234944	0
0	29398	4904.235328	0
0	29412	4904.243712	0
0	29415	4904.244096	0
0	29419	4904.24448	0
0	29428	4904.252096	0
0	29431	4904.25248	0
0	29438	4904.252864	0
0	29452	4904.261248	0
0	29455	4904.261632	0
0	29459	4904.262016	0
0	29468	4904.269632	0
0	29471	4904.270016	0
0	29478	4904.2704	0
0	29492	4904.278784	0
0	29495	4904.279168	0
0	29499	4904.279552	0
0	29508	4904.287168	0
0	29511	4904.287552	0
0	29518	4904.287936	0
0	29938	5004.29632	0
0	29941	5004.296704	0
0	29945	5004.297088	0
0	29950	5004.304704	0
0	29953	5004.305088	0
0	29960	5004.305472	0
0	29974	5004.313856	0
0	29977	5004.31424	0
0	29981	5004.314624	0
0	29990	5004.32224	0
0	29993	5004.322624	0
0	30000	5004.323008	0
0	30014	5004.331392	0
0	30017	5004.331776	0
0	30021	5004.33216	0
0	30030	5004.339776	0
0	30033	5004.34016	0
0	30040	5004.340544	0
0	30054	5004.348928	0
0	30057	5004.349312	0
0	30061	5004.349696	0
0	30070	5004.357312	0
0	30073	5004.357696	0
0	30080	5004.35808	0
0	30094	5004.366464	0
0	30097	5004.366848	0
0	30101	5004.367232	0
0	30110	5004.374848	0
0	30113	5004.375232	0
0	30120	5004.375616	0
0	30540	5104.384	0
0	30543	5104.384384	0
0	30547	5104.384768	0
0	30552	5104.392384	0
0	30555	5104.392768	0
0	30562	5104.393152	0
0	30576	5104.401536	0
0	30579	5104.40192	0
0	30583	5104.402304	0
0	30592	5104.40992	0
0	30595	5104.410304	0
0	30602	5104.410688	0
0	30616	5104.419072	0
0	30619	5104.419456	0
0	30623	5104.41984	0
0	30632	5104.427456	0
0	30635	5104.42784	0
0	30642	5104.428224	0
0	30656	5104.436608	0
0	30659	5104.436992	0
0	30663	5104.437376	0
0	30672	5104.444992	0
0	30675	5104.445376	0
0	30682	5104.44576	0
0	30696	5104.454144	0
0	30699	5104.454528	0
0	30703	5104.454912	0
0	30712	5104.462528	0
0	30715	5104.462912	0
0	30722	5104.463296	0
0	31142	5204.47168	0
0	31145	5204.472064	0
0	31149	5204.472448	0
0	31154	5204.480064	0
0	31157	5204.480448	0
0	31164	5204.480832	0
0	31178	5204.489216	0
0	31181	5204.4896	0
0	31185	5204.489984	0
0	31194	5204.4976	0
0	31197	5204.497984	0
0	31204	5204.498368	0
0	31218	5204.506752	0
0	31221	5204.507136	0
0	31225	5204.50752	0
0	31234	5204.515136	0
0	31237	5204.51552	0
0	31244	5204.515904	0
0	31258	5204.524288	0
0	31261	5204.524672	0
0	31265	5204.525056	0
0	31274	5204.532672	0
0	31277	5204.533056	0
0	31284	5204.53344	0
0	31298	5204.541824	0
0	31301	5204.542208	0
0	31305	5204.542592	0
0	31314	5204.550208	0
0	31317	5204.550592	0
0	31324	5204.550976	0
0	31744	5304.55936	0
0	31747	5304.559744	0
0	31751	5304.560128	0
0	31756	5304.567744	0
0	31759	5304.568128	0
0	31766	5304.568512	0
0	31780	5304.576896	0
0	31783	5304.57728	0
0	31787	5304.577664	0
0	31796	5304.58528	0
0	31799	5304.585664	0
0	31806	5304.586048	0
0	31820	5304.594432	0
0	31823	5304.594816	0
0	31827	5304.5952	0
0	31836	5304.602816	0
0	31839	5304.6032	0
0	31846	5304.603584	0
0	31860	5304.611968	0
0	31863	5304.612352	0
0	31867	5304.612736	0
0	31876	5304.620352	0
0	31879	5304.620736	0
0	31886	5304.62112	0
0	31900	5304.629504	0
0	31903	5304.629888	0
0	31907	5304.630272	0
0	31916	5304.637888	0
0	31919	5304.638272	0
0	31926	5304.638656	0
0	32346	5404.64704	0
0	32349	5404.647424	0
0	32353	5404.647808	0
0	32358	5404.655424	0
0	32361	5404.655808	0
0	32368	5404.656192	0
0	32382	5404.664576	0
0	32385	5404.66496	0
0	32389	5404.665344	0
0	32398	5404.67296	0
0	32401	5404.673344	0
0	32408	5404.673728	0
0	32422	5404.682112	0
0	32425	5404.682496	0
0	32429	5404.68288	0
0	32438	5404.690496	0
0	32441	5404.69088	0
0	32448	5404.691264	0
0	32462	5404.699648	0
0	32465	5404.700032	0
0	32469	5404.700416	0
0	32478	5404.708032	0
0	32481	5404.708416	0
0	32488	5404.7088	0
0	32502	5404.717184	0
0	32505	5404.717568	0
0	32509	5404.717952	0
0	32518	5404.725568	0
0	32521	5404.725952	0
0	32528	5404.726336	0
0	32948	5504.73472	0
0	32951	5504.735104	0
0	32955	5504.735488	0
0	32960	5504.743104	0
0	32963	5504.743488	0
0	32970	5504.743872	0
0	32984	5504.752256	0
0	32987	5504.75264	0
0	32991	5504.753024	0
0	33000	5504.76064	0
0	33003	5504.761024	0
0	33010	5504.761408	0
0	33024	5504.769792	0
0	33027	5504.770176	0
0	33031	5504.77056	0
0	33040	5504.778176	0
0	33043	5504.77856	0
0	33050	5504.778944	0
0	33064	5504.787328	0
0	33067	5504.787712	0
0	33071	5504.788096	0
0	33080	5504.795712	0
0	33083	5504.796096	0
0	33090	5504.79648	0
0	33104	5504.804864	0
0	33107	5504.805248	0
0	33111	5504.805632	0
0	33120	5504.813248	0
0	33123	5504.813632	0
0	33130	5504.814016	0
0	33550	5604.8224	0
0	33553	5604.822784	0
0	33557	5604.823168	0
0	33562	5604.830784	0
0	33565	5604.831168	0
0	33572	5604.831552	0
0	33586	5604.839936	0
0	33589	5604.84032	0
0	33593	5604.840704	0
0	33602	5604.84832	0
0	33605	5604.848704	0
0	33612	5604.849088	0
0	33626	5604.857472	0
0	33629	5604.857856	0
0	33633	5604.85824	0
0	33642	5604.865856	0
0	33645	5604.86624	0
0	33652	5604.866624	0
0	33666	5604.875008	0
0	33669	5604.875392	0
0	33673	5604.875776	0
0	33682	5604.883392	0
0	33685	5604.883776	0
0	33692	5604.88416	0
0	33706	5604.892544	0
0	33709	5604.892928	0
0	33713	5604.893312	0
0	33722	5604.900928	0
0	33725	5604.901312	0
0	33732	5604.901696	0
0	34152	5704.91008	0
0	34155	5704.910464	0
0	34159	5704.910848	0
0	34164	5704.918464	0
0	34167	5704.918848	0
0	34174	5704.919232	0
0	34188	5704.927616	0
0	34191	5704.928	0
0	34195	5704.928384	0
0	34204	5704.936	0
0	34207	5704.936384	0
0	34214	5704.936768	0
0	34228	5704.945152	0
0	34231	5704.945536	0
0	34235	5704.94592	0
0	34244	5704.953536	0
0	34247	5704.95392	0
0	34254	5704.954304	0
0	34268	5704.962688	0
0	34271	5704.963072	0
0	34275	5704.963456	0
0	34284	5704.971072	0
0	34287	5704.971456	0
0	34294	5704.97184	0
0	34308	5704.980224	0
0	34311	5704.980608	0
0	34315	5704.980992	0
0	34324	5704.988608	0
0	34327	5704.988992	0
0	34334	5704.989376	0
0	34754	5804.99776	0
0	34757	5804.998144	0
0	34761	5804.998528	0
0	34770	5805.006144	0
0	34773	5805.006528	0
0	34780	5805.006912	0
0	34794	5805.015296	0
0	34797	5805.01568	0
0	34801	5805.016064	0
0	34810	5805.02368	0
0	34813	5805.024064	0
0	34820	5805.024448	0
0	34834	5805.032832	0
0	34837	5805.033216	0
0	34841	5805.0336	0
0	34850	5805.041216	0
0	34853	5805.0416	0
0	34860	5805.041984	0
0	34874	5805.050368	0
0	34877	5805.050752	0
0	34881	5805.051136	0
0	34890	5805.058752	0
0	34893	5805.059136	0
0	34900	5805.05952	0
0	34914	5805.067904	0
0	34917	5805.068288	0
0	34921	5805.068672	0
0	34930	5805.076288	0
0	34933	5805.076672	0
0	34940	5805.077056	0
0	35360	5905.08544	0
0	35363	5905.085824	0
0	35367	5905.086208	0
0	35372	5905.093824	0
0	35375	5905.094208	0
0	35382	5905.094592	0
0	35396	5905.102976	0
0	35399	5905.10336	0
0	35403	5905.103744	0
0	35412	5905.11136	0
0	35415	5905.111744	0
0	35422	5905.112128	0
0	35436	5905.120512	0
0	35439	5905.120896	0
0	35443	5905.12128	0
0	35452	5905.128896	0
0	35455	5905.12928	0
0	35462	5905.129664	0
0	35476	5905.138048	0
0	35479	5905.138432	0
0	35483	5905.138816	0
0	35492	5905.146432	0
0	35495	5905.146816	0
0	35502	5905.1472	0
0	35516	5905.155584	0
0	35519	5905.155968	0
0	35523	5905.156352	0
0	35532	5905.163968	0
0	35535	5905.164352	0
0	35542	5905.164736	0
0	35962	6005.17312	0
0	35965	6005.173504	0
0	35969	6005.173888	0
0	35974	6005.181504	0
0	35977	6005.181888	0
0	35984	6005.182272	0
0	35998	6005.190656	0
0	36001	6005.19104	0
0	36005	6005.191424	0
0	36014	6005.19904	0
0	36017	6005.199424	0
0	36024	6005.199808	0
0	36038	6005.208192	0
0	36041	6005.208576	0
0	36045	6005.20896	0
0	36054	6005.216576	0
0	36057	6005.21696	0
0	36064	6005.217344	0
0	36078	6005.225728	0
0	36081	6005.226112	0
0	36085	6005.226496	0
0	36094	6005.234112	0
0	36097	6005.234496	0
0	36104	6005.23488	0
0	36118	6005.243264	0
0	36121	6005.243648	0
0	36125	6005.244032	0
0	36134	6005.251648	0
0	36137	6005.252032	0
0	36144	6005.252416	0
0	36564	6105.2608	0
0	36567	6105.261184	0
0	36571	6105.261568	0
0	36576	6105.269184	0
0	36579	6105.269568	0
0	36586	6105.269952	0
0	36600	6105.278336	0
0	36603	6105.27872	0
0	36607	6105.279104	0
0	36616	6105.28672	0
0	36619	6105.287104	0
0	36626	6105.287488	0
0	36640	6105.295872	0
0	36643	6105.296256	0
0	36647	6105.29664	0
0	36656	6105.304256	0
0	36659	6105.30464	0
0	36666	6105.305024	0
0	36680	6105.313408	0
0	36683	6105.313792	0
0	36687	6105.314176	0
0	36696	6105.321792	0
0	36699	6105.322176	0
0	36706	6105.32256	0
0	36720	6105.330944	0
0	36723	6105.331328	0
0	36727	6105.331712	0
0	36736	6105.339328	0
0	36739	6105.339712	0
0	36746	6105.340096	0
0	37166	6205.34848	0
0	37169	6205.348864	0
0	37173	6205.349248	0
0	37178	6205.356864	0
0	37181	6205.357248	0
0	37188	6205.357632	0
0	37202	6205.366016	0
0	37205	6205.3664	0
0	37209	6205.366784	0
0	37218	6205.3744	0
0	37221	6205.374784	0
0	37228	6205.375168	0
0	37242	6205.383552	0
0	37245	6205.383936	0
0	37249	6205.38432	0
0	37258	6205.391936	0
0	37261	6205.39232	0
0	37268	6205.392704	0
0	37282	6205.401088	0
0	37285	6205.401472	0
0	37289	6205.401856	0
0	37298	6205.409472	0
0	37301	6205.409856	0
0	37308	6205.41024	0
0	37322	6205.418624	0
0	37325	6205.419008	0
0	37329	6205.419392	0
0	37338	6205.427008	0
0	37341	6205.427392	0
0	37348	6205.427776	0
0	37768	6305.43616	0
0	37771	6305.436544	0
0	37775	6305.436928	0
0	37780	6305.444544	0
0	37783	6305.444928	0
0	37790	6305.445312	0
0	37804	6305.453696	0
0	37807	6305.45408	0
0	37811	6305.454464	0
0	37820	6305.46208	0
0	37823	6305.462464	0
0	37830	6305.462848	0
0	37844	6305.471232	0
0	37847	6305.471616	0
0	37851	6305.472	0
0	37860	6305.479616	0
0	37863	6305.48	0
0	37870	6305.480384	0
0	37884	6305.488768	0
0	37887	6305.489152	0
0	37891	6305.489536	0
0	37900	6305.497152	0
0	37903	6305.497536	0
0	37910	6305.49792	0
0	37924	6305.506304	0
0	37927	6305.506688	0
0	37931	6305.507072	0
0	37940	6305.514688	0
0	37943	6305.515072	0
0	37950	6305.515456	0
0	38370	6405.52384	0
0	38373	6405.524224	0
0	38377	6405.524608	0
0	38382	6405.532224	0
0	38385	6405.532608	0
0	38392	6405.532992	0
0	38406	6405.541376	0
0	38409	6405.54176	0
0	38413	6405.542144	0
0	38422	6405.54976	0
0	38425	6405.550144	0
0	38432	6405.550528	0
0	38446	6405.558912	0
0	38449	6405.559296	0
0	38453	6405.55968	0
0	38462	6405.567296	0
0	38465	6405.56768	0
0	38472	6405.568064	0
0	38486	6405.576448	0
0	38489	6405.576832	0
0	38493	6405.577216	0
0	38502	6405.584832	0
0	38505	6405.585216	0
0	38512	6405.5856	0
0	38526	6405.593984	0
0	38529	6405.594368	0
0	38533	6405.594752	0
0	38542	6405.602368	0
0	38545	6405.602752	0
0	38552	6405.603136	0
0	38972	6505.61152	0
0	38975	6505.611904	0
0	38979	6505.612288	0
0	38984	6505.619904	0
0	38987	6505.620288	0
0	38994	6505.620672	0
0	39008	6505.629056	0
0	39011	6505.62944	0
0	39015	6505.629824	0
0	39024	6505.63744	0
0	39027	6505.637824	0
0	39034	6505.638208	0
0	39048	6505.646592	0
0	39051	6505.646976	0
0	39055	6505.64736	0
0	39064	6505.654976	0
0	39067	6505.65536	0
0	39074	6505.655744	0
0	39088	6505.664128	0
0	39091	6505.664512	0
0	39095	6505.664896	0
0	39104	6505.672512	0
0	39107	6505.672896	0
0	39114	6505.67328	0
0	39128	6505.681664	0
0	39131	6505.682048	0
0	39135	6505.682432	0
0	39144	6505.690048	0
0	39147	6505.690432	0
0	39154	6505.690816	0
0	39574	6605.6992	0
0	39577	6605.699584	0
0	39581	6605.699968	0
0	39586	6605.707584	0
0	39589	6605.707968	0
0	39596	6605.708352	0
0	39610	6605.716736	0
0	39613	6605.71712	0
0	39617	6605.717504	0
0	39626	6605.72512	0
0	39629	6605.725504	0
0	39636	6605.725888	0
0	39650	6605.734272	0
0	39653	6605.734656	0
0	39657	6605.73504	0
0	39666	6605.742656	0
0	39669	6605.74304	0
0	39676	6605.743424	0
0	39690	6605.751808	0
0	39693	6605.752192	0
0	39697	6605.752576	0
0	39706	6605.760192	0
0	39709	6605.760576	0
0	39716	6605.76096	0
0	39730	6605.769344	0
0	39733	6605.769728	0
0	39737	6605.770112	0
0	39746	6605.777728	0
0	39749	6605.778112	0
0	39756	6605.778496	0
0	40176	6705.78688	0
0	40179	6705.787264	0
0	40183	6705.787648	0
0	40188	6705.795264	0
0	40191	6705.795648	0
0	40198	6705.796032	0
0	40212	6705.804416	0
0	40215	6705.8048	0
0	40219	6705.805184	0
0	40228	6705.8128	0
0	40231	6705.813184	0
0	40238	6705.813568	0
0	40252	6705.821952	0
0	40255	6705.822336	0
0	40259	6705.82272	0
0	40268	6705.830336	0
0	40271	6705.83072	0
0	40278	6705.831104	0
0	40292	6705.839488	0
0	40295	6705.839872	0
0	40299	6705.840256	0
0	40308	6705.847872	0
0	40311	6705.848256	0
0	40318	6705.84864	0
0	40332	6705.857024	0
0	40335	6705.857408	0
0	40339	6705.857792	0
0	40348	6705.865408	0
0	40351	6705.865792	0
0	40358	6705.866176	0
0	40778	6805.87456	0
0	40781	6805.874944	0
0	40785	6805.875328	0
0	40790	6805.882944	0
0	40793	6805.883328	0
0	40800	6805.883712	0
0	40814	6805.892096	0
0	40817	6805.89248	0
0	40821	6805.892864	0
0	40830	6805.90048	0
0	40833	6805.900864	0
0	40840	6805.901248	0
0	40854	6805.909632	0
0	40857	6805.910016	0
0	40861	6805.9104	0
0	40870	6805.918016	0
0	40873	6805.9184	0
0	40880	6805.918784	0
0	40894	6805.927168	0
0	40897	6805.927552	0
0	40901	6805.927936	0
0	40910	6805.935552	0
0	40913	6805.935936	0
0	40920	6805.93632	0
0	40934	6805.944704	0
0	40937	6805.945088	0
0	40941	6805.945472	0
0	40950	6805.953088	0
0	40953	6805.953472	0
0	40960	6805.953856	0
0	41380	6905.96224	0
0	41383	6905.962624	0
0	41387	6905.963008	0
0	41392	6905.970624	0
0	41395	6905.971008	0
0	41402	6905.971392	0
0	41416	6905.979776	0
0	41419	6905.98016	0
0	41423	6905.980544	0
0	41432	6905.98816	0
0	41435	6905.988544	0
0	41442	6905.988928	0
0	41456	6905.997312	0
0	41459	6905.997696	0
0	41463	6905.99808	0
0	41476	6906.005696	0
0	41479	6906.00608	0
0	41486	6906.006464	0
0	41500	6906.014848	0
0	41503	6906.015232	0
0	41507	6906.015616	0
0	41516	6906.023232	0
0	41519	6906.023616	0
0	41526	6906.024	0
0	41540	6906.032384	0
0	41543	6906.032768	0
0	41547	6906.033152	0
0	41556	6906.040768	0
0	41559	6906.041152	0
0	41566	6906.041536	0
0	41986	7006.04992	0
0	41989	7006.050304	0
0	41993	7006.050688	0
0	41998	7006.058304	0
0	42001	7006.058688	0
0	42008	7006.059072	0
0	42022	7006.067456	0
0	42025	7006.06784	0
0	42029	7006.068224	0
0	42038	7006.07584	0
0	42041	7006.076224	0
0	42048	7006.076608	0
0	42062	7006.084992	0
0	42065	7006.085376	0
0	42069	7006.08576	0
0	42078	7006.093376	0
0	42081	7006.09376	0
0	42088	7006.094144	0
0	42102	7006.102528	0
0	42105	7006.102912	0
0	42109	7006.103296	0
0	42118	7006.110912	0
0	42121	7006.111296	0
0	42128	7006.11168	0
0	42142	7006.120064	0
0	42145	7006.120448	0
0	42149	7006.120832	0
0	42158	7006.128448	0
0	42161	7006.128832	0
0	42168	7006.129216	0
0	42588	7106.1376	0
0	42591	7106.137984	0
0	42595	7106.138368	0
0	42600	7106.145984	0
0	42603	7106.146368	0
0	42610	7106.146752	0
0	42624	7106.155136	0
0	42627	7106.15552	0
0	42631	7106.155904	0
0	42640	7106.16352	0
0	42643	7106.163904	0
0	42650	7106.164288	0
0	42664	7106.172672	0
0	42667	7106.173056	0
0	42671	7106.17344	0
0	42680	7106.181056	0
0	42683	7106.18144	0
0	42690	7106.181824	0
0	42704	7106.190208	0
0	42707	7106.190592	0
0	42711	7106.190976	0
0	42720	7106.198592	0
0	42723	7106.198976	0
0	42730	7106.19936	0
0	42744	7106.207744	0
0	42747	7106.208128	0
0	42751	7106.208512	0
0	42760	7106.216128	0
0	42763	7106.216512	0
0	42770	7106.216896	0
0	43190	7206.22528	0
0	43193	7206.225664	0
0	43197	7206.226048	0
0	43202	7206.233664	0
0	43205	7206.234048	0
0	43212	7206.234432	0
0	43226	7206.242816	0
0	43229	7206.2432	0
0	43233	7206.243584	0
0	43242	7206.2512	0
0	43245	7206.251584	0
0	43252	7206.251968	0
0	43266	7206.260352	0
0	43269	7206.260736	0
0	43273	7206.26112	0
0	43282	7206.268736	0
0	43285	7206.26912	0
0	43292	7206.269504	0
0	43306	7206.277888	0
0	43309	7206.278272	0
0	43313	7206.278656	0
0	43322	7206.286272	0
0	43325	7206.286656	0
0	43332	7206.28704	0
0	43346	7206.295424	0
0	43349	7206.295808	0
0	43353	7206.296192	0
0	43362	7206.303808	0
0	43365	7206.304192	0
0	43372	7206.304576	0
0	43792	7306.31296	0
0	43795	7306.313344	0
0	43799	7306.313728	0
0	43804	7306.321344	0
0	43807	7306.321728	0
0	43814	7306.322112	0
0	43828	7306.330496	0
0	43831	7306.33088	0
0	43835	7306.331264	0
0	43844	7306.33888	0
0	43847	7306.339264	0
0	43854	7306.339648	0
0	43868	7306.348032	0
0	43871	7306.348416	0
0	43875	7306.3488	0
0	43884	7306.356416	0
0	43887	7306.3568	0
0	43894	7306.357184	0
0	43908	7306.365568	0
0	43911	7306.365952	0
0	43915	7306.366336	0
0	43924	7306.373952	0
0	43927	7306.374336	0
0	43934	7306.37472	0
0	43948	7306.383104	0
0	43951	7306.383488	0
0	43955	7306.383872	0
0	43964	7306.391488	0
0	43967	7306.391872	0
0	43974	7306.392256	0
0	44394	7406.40064	0
0	44397	7406.401024	0
0	44401	7406.401408	0
0	44406	7406.409024	0
0	44409	7406.409408	0
0	44416	7406.409792	0
0	44430	7406.418176	0
0	44433	7406.41856	0
0	44437	7406.418944	0
0	44446	7406.42656	0
0	44449	7406.426944	0
0	44456	7406.427328	0
0	44470	7406.435712	0
0	44473	7406.436096	0
0	44477	7406.43648	0
0	44486	7406.444096	0
0	44489	7406.44448	0
0	44496	7406.444864	0
0	44510	7406.453248	0
0	44513	7406.453632	0
0	44517	7406.454016	0
0	44526	7406.461632	0
0	44529	7406.462016	0
0	44536	7406.4624	0
0	44550	7406.470784	0
0	44553	7406.471168	0
0	44557	7406.471552	0
0	44566	7406.479168	0
0	44569	7406.479552	0
0	44576	7406.479936	0
0	44996	7506.48832	0
0	44999	7506.488704	0
0	45003	7506.489088	0
0	45008	7506.496704	0
0	45011	7506.497088	0
0	45018	7506.497472	0
0	45032	7506.505856	0
0	45035	7506.50624	0
0	45039	7506.506624	0
0	45048	7506.51424	0
0	45051	7506.514624	0
0	45058	7506.515008	0
0	45072	7506.523392	0
0	45075	7506.523776	0
0	45079	7506.52416	0
0	45088	7506.531776	0
0	45091	7506.53216	0
0	45098	7506.532544	0
0	45112	7506.540928	0
0	45115	7506.541312	0
0	45119	7506.541696	0
0	45128	7506.549312	0
0	45131	7506.549696	0
0	45138	7506.55008	0
0	45152	7506.558464	0
0	45155	7506.558848	0
0	45159	7506.559232	0
0	45168	7506.566848	0
0	45171	7506.567232	0
0	45178	7506.567616	0
0	45598	7606.576	0
0	45601	7606.576384	0
0	45605	7606.576768	0
0	45610	7606.584384	0
0	45613	7606.584768	0
0	45620	7606.585152	0
0	45634	7606.593536	0
0	45637	7606.59392	0
0	45641	7606.594304	0
0	45650	7606.60192	0
0	45653	7606.602304	0
0	45660	7606.602688	0
0	45674	7606.611072	0
0	45677	7606.611456	0
0	45681	7606.61184	0
0	45690	7606.619456	0
0	45693	7606.61984	0
0	45700	7606.620224	0
0	45714	7606.628608	0
0	45717	7606.628992	0
0	45721	7606.629376	0
0	45730	7606.636992	0
0	45733	7606.637376	0
0	45740	7606.63776	0
0	45754	7606.646144	0
0	45757	7606.646528	0
0	45761	7606.646912	0
0	45770	7606.654528	0
0	45773	7606.654912	0
0	45780	7606.655296	0
0	46200	7706.66368	0
0	46203	7706.664064	0
0	46207	7706.664448	0
0	46212	7706.672064	0
0	46215	7706.672448	0
0	46222	7706.672832	0
0	46236	7706.681216	0
0	46239	7706.6816	0
0	46243	7706.681984	0
0	46252	7706.6896	0
0	46255	7706.689984	0
0	46262	7706.690368	0
0	46276	7706.698752	0
0	46279	7706.699136	0
0	46283	7706.69952	0
0	46292	7706.707136	0
0	46295	7706.70752	0
0	46302	7706.707904	0
0	46316	7706.716288	0
0	46319	7706.716672	0
0	46323	7706.717056	0
0	46332	7706.724672	0
0	46335	7706.725056	0
0	46342	7706.72544	0
0	46356	7706.733824	0
0	46359	7706.734208	0
0	46363	7706.734592	0
0	46372	7706.742208	0
0	46375	7706.742592	0
0	46382	7706.742976	0
0	46802	7806.75136	0
0	46805	7806.751744	0
0	46809	7806.752128	0
0	46814	7806.759744	0
0	46817	7806.760128	0
0	46824	7806.760512	0
0	46838	7806.768896	0
0	46841	7806.76928	0
0	46845	7806.769664	0
0	46854	7806.77728	0
0	46857	7806.777664	0
0	46864	7806.778048	0
0	46878	7806.786432	0
0	46881	7806.786816	0
0	46885	7806.7872	0
0	46894	7806.794816	0
0	46897	7806.7952	0
0	46904	7806.795584	0
0	46918	7806.803968	0
0	46921	7806.804352	0
0	46925	7806.804736	0
0	46934	7806.812352	0
0	46937	7806.812736	0
0	46944	7806.81312	0
0	46958	7806.821504	0
0	46961	7806.821888	0
0	46965	7806.822272	0
0	46974	7806.829888	0
0	46977	7806.830272	0
0	46984	7806.830656	0
0	47404	7906.83904	0
0	47407	7906.839424	0
0	47411	7906.839808	0
0	47416	7906.847424	0
0	47419	7906.847808	0
0	47426	7906.848192	0
0	47440	7906.856576	0
0	47443	7906.85696	0
0	47447	7906.857344	0
0	47456	7906.86496	0
0	47459	7906.865344	0
0	47466	7906.865728	0
0	47480	7906.874112	0
0	47483	7906.874496	0
0	47487	7906.87488	0
0	47496	7906.882496	0
0	47499	7906.88288	0
0	47506	7906.883264	0
0	47520	7906.891648	0
0	47523	7906.892032	0
0	47527	7906.892416	0
0	47536	7906.900032	0
0	47539	7906.900416	0
0	47546	7906.9008	0
0	47560	7906.909184	0
0	47563	7906.909568	0
0	47567	7906.909952	0
0	47576	7906.917568	0
0	47579	7906.917952	0
0	47586	7906.918336	0
0	48006	8006.92672	0
0	48009	8006.927104	0
0	48013	8006.927488	0
0	48018	8006.935104	0
0	48021	8006.935488	0
0	48028	8006.935872	0
0	48042	8006.944256	0
0	48045	8006.94464	0
0	48049	8006.945024	0
0	48058	8006.95264	0
0	48061	8006.953024	0
0	48068	8006.953408	0
0	48082	8006.961792	0
0	48085	8006.962176	0
0	48089	8006.96256	0
0	48098	8006.970176	0
0	48101	8006.97056	0
0	48108	8006.970944	0
0	48122	8006.979328	0
0	48125	8006.979712	0
0	48129	8006.980096	0
0	48138	8006.987712	0
0	48141	8006.988096	0
0	48148	8006.98848	0
0	48162	8006.996864	0
0	48165	8006.997248	0
0	48169	8006.997632	0
0	48182	8007.005248	0
0	48185	8007.005632	0
0	48192	8007.006016	0
0	48612	8107.0144	0
0	48615	8107.014784	0
0	48619	8107.015168	0
0	48624	8107.022784	0
0	48627	8107.023168	0
0	48634	8107.023552	0
0	48648	8107.031936	0
0	48651	8107.03232	0
0	48655	8107.032704	0
0	48664	8107.04032	0
0	48667	8107.040704	0
0	48674	8107.041088	0
0	48688	8107.049472	0
0	48691	8107.049856	0
0	48695	8107.05024	0
0	48704	8107.057856	0
0	48707	8107.05824	0
0	48714	8107.058624	0
0	48728	8107.067008	0
0	48731	8107.067392	0
0	48735	8107.067776	0
0	48744	8107.075392	0
0	48747	8107.075776	0
0	48754	8107.07616	0
0	48768	8107.084544	0
0	48771	8107.084928	0
0	48775	8107.085312	0
0	48784	8107.092928	0
0	48787	8107.093312	0
0	48794	8107.093696	0
0	49214	8207.10208	0
0	49217	8207.102464	0
0	49221	8207.102848	0
0	49226	8207.110464	0
0	49229	8207.110848	0
0	49236	8207.111232	0
0	49250	8207.119616	0
0	49253	8207.12	0
0	49257	8207.120384	0
0	49266	8207.128	0
0	49269	8207.128384	0
0	49276	8207.128768	0
0	49290	8207.137152	0
0	49293	8207.137536	0
0	49297	8207.13792	0
0	49306	8207.145536	0
0	49309	8207.14592	0
0	49316	8207.146304	0
0	49330	8207.154688	0
0	49333	8207.155072	0
0	49337	8207.155456	0
0	49346	8207.163072	0
0	49349	8207.163456	0
0	49356	8207.16384	0
0	49370	8207.172224	0
0	49373	8207.172608	0
0	49377	8207.172992	0
0	49386	8207.180608	0
0	49389	8207.180992	0
0	49396	8207.181376	0
0	49816	8307.18976	0
0	49819	8307.190144	0
0	49823	8307.190528	0
0	49828	8307.198144	0
0	49831	8307.198528	0
0	49838	8307.198912	0
0	49852	8307.207296	0
0	49855	8307.20768	0
0	49859	8307.208064	0
0	49868	8307.21568	0
0	49871	8307.216064	0
0	49878	8307.216448	0
0	49892	8307.224832	0
0	49895	8307.225216	0
0	49899	8307.2256	0
0	49908	8307.233216	0
0	49911	8307.2336	0
0	49918	8307.233984	0
0	49932	8307.242368	0
0	49935	8307.242752	0
0	49939	8307.243136	0
0	49948	8307.250752	0
0	49951	8307.251136	0
0	49958	8307.25152	0
0	49972	8307.259904	0
0	49975	8307.260288	0
0	49979	8307.260672	0
0	49988	8307.268288	0
0	49991	8307.268672	0
0	49998	8307.269056	0
0	50418	8407.27744	0
0	50421	8407.277824	0
0	50425	8407.278208	0
0	50430	8407.285824	0
0	50433	8407.286208	0
0	50440	8407.286592	0
0	50454	8407.294976	0
0	50457	8407.29536	0
0	50461	8407.295744	0
0	50470	8407.30336	0
0	50473	8407.303744	0
0	50480	8407.304128	0
0	50494	8407.312512	0
0	50497	8407.312896	0
0	50501	8407.31328	0
0	50510	8407.320896	0
0	50513	8407.32128	0
0	50520	8407.321664	0
0	50534	8407.330048	0
0	50537	8407.330432	0
0	50541	8407.330816	0
0	50550	8407.338432	0
0	50553	8407.338816	0
0	50560	8407.3392	0
0	50574	8407.347584	0
0	50577	8407.347968	0
0	50581	8407.348352	0
0	50590	8407.355968	0
0	50593	8407.356352	0
0	50600	8407.356736	0
0	51020	8507.36512	0
0	51023	8507.365504	0
0	51027	8507.365888	0
0	51032	8507.373504	0
0	51035	8507.373888	0
0	51042	8507.374272	0
0	51056	8507.382656	0
0	51059	8507.38304	0
0	51063	8507.383424	0
0	51072	8507.39104	0
0	51075	8507.391424	0
0	51082	8507.391808	0
0	51096	8507.400192	0
0	51099	8507.400576	0
0	51103	8507.40096	0
0	51112	8507.408576	0
0	51115	8507.40896	0
0	51122	8507.409344	0
0	51136	8507.417728	0
0	51139	8507.418112	0
0	51143	8507.418496	0
0	51152	8507.426112	0
0	51155	8507.426496	0
0	51162	8507.42688	0
0	51176	8507.435264	0
0	51179	8507.435648	0
0	51183	8507.436032	0
0	51192	8507.443648	0
0	51195	8507.444032	0
0	51202	8507.444416	0
0	51622	8607.4528	0
0	51625	8607.453184	0
0	51629	8607.453568	0
0	51634	8607.461184	0
0	51637	8607.461568	0
0	51644	8607.461952	0
0	51658	8607.470336	0
0	51661	8607.47072	0
0	51665	8607.471104	0
0	51674	8607.47872	0
0	51677	8607.479104	0
0	51684	8607.479488	0
0	51698	8607.487872	0
0	51701	8607.488256	0
0	51705	8607.48864	0
0	51714	8607.496256	0
0	51717	8607.49664	0
0	51724	8607.497024	0
0	51738	8607.505408	0
0	51741	8607.505792	0
0	51745	8607.506176	0
0	51754	8607.513792	0
0	51757	8607.514176	0
0	51764	8607.51456	0
0	51778	8607.522944	0
0	51781	8607.523328	0
0	51785	8607.523712	0
0	51794	8607.531328	0
0	51797	8607.531712	0
0	51804	8607.532096	0
0	52224	8707.54048	0
0	52227	8707.540864	0
0	52231	8707.541248	0
0	52236	8707.548864	0
0	52239	8707.549248	0
0	52246	8707.549632	0
0	52260	8707.558016	0
0	52263	8707.5584	0
0	52267	8707.558784	0
0	52276	8707.5664	0
0	52279	8707.566784	0
0	52286	8707.567168	0
0	52300	8707.575552	0
0	52303	8707.575936	0
0	52307	8707.57632	0
0	52316	8707.583936	0
0	52319	8707.58432	0
0	52326	8707.584704	0
0	52340	8707.593088	0
0	52343	8707.593472	0
0	52347	8707.593856	0
0	52356	8707.601472	0
0	52359	8707.601856	0
0	52366	8707.60224	0
0	52380	8707.610624	0
0	52383	8707.611008	0
0	52387	8707.611392	0
0	52396	8707.619008	0
0	52399	8707.619392	0
0	52406	8707.619776	0
0	52826	8807.62816	0
0	52829	8807.628544	0
0	52833	8807.628928	0
0	52838	8807.636544	0
0	52841	8807.636928	0
0	52848	8807.637312	0
0	52862	8807.645696	0
0	52865	8807.64608	0
0	52869	8807.646464	0
0	52878	8807.65408	0
0	52881	8807.654464	0
0	52888	8807.654848	0
0	52902	8807.663232	0
0	52905	8807.663616	0
0	52909	8807.664	0
0	52918	8807.671616	0
0	52921	8807.672	0
0	52928	8807.672384	0
0	52942	8807.680768	0
0	52945	8807.681152	0
0	52949	8807.681536	0
0	52958	8807.689152	0
0	52961	8807.689536	0
0	52968	8807.68992	0
0	52982	8807.698304	0
0	52985	8807.698688	0
0	52989	8807.699072	0
0	52998	8807.706688	0
0	53001	8807.707072	0
0	53008	8807.707456	0
0	53428	8907.71584	0
0	53431	8907.716224	0
0	53435	8907.716608	0
0	53440	8907.724224	0
0	53443	8907.724608	0
0	53450	8907.724992	0
0	53464	8907.733376	0
0	53467	8907.73376	0
0	53471	8907.734144	0
0	53480	8907.74176	0
0	53483	8907.742144	0
0	53490	8907.742528	0
0	53504	8907.750912	0
0	53507	8907.751296	0
0	53511	8907.75168	0
0	53520	8907.759296	0
0	53523	8907.75968	0
0	53530	8907.760064	0
0	53544	8907.768448	0
0	53547	8907.768832	0
0	53551	8907.769216	0
0	53560	8907.776832	0
0	53563	8907.777216	0
0	53570	8907.7776	0
0	53584	8907.785984	0
0	53587	8907.786368	0
0	53591	8907.786752	0
0	53600	8907.794368	0
0	53603	8907.794752	0
0	53610	8907.795136	0
0	54030	9007.80352	0
0	54033	9007.803904	0
0	54037	9007.804288	0
0	54042	9007.811904	0
0	54045	9007.812288	0
0	54052	9007.812672	0
0	54066	9007.821056	0
0	54069	9007.82144	0
0	54073	9007.821824	0
0	54082	9007.82944	0
0	54085	9007.829824	0
0	54092	9007.830208	0
0	54106	9007.838592	0
0	54109	9007.838976	0
0	54113	9007.83936	0
0	54122	9007.846976	0
0	54125	9007.84736	0
0	54132	9007.847744	0
0	54146	9007.856128	0
0	54149	9007.856512	0
0	54153	9007.856896	0
0	54162	9007.864512	0
0	54165	9007.864896	0
0	54172	9007.86528	0
0	54186	9007.873664	0
0	54189	9007.874048	0
0	54193	9007.874432	0
0	54202	9007.882048	0
0	54205	9007.882432	0
0	54212	9007.882816	0
0	54632	9107.8912	0
0	54635	9107.891584	0
0	54639	9107.891968	0
0	54644	9107.899584	0
0	54647	9107.899968	0
0	54654	9107.900352	0
0	54668	9107.908736	0
0	54671	9107.90912	0
0	54675	9107.909504	0
0	54684	9107.91712	0
0	54687	9107.917504	0
0	54694	9107.917888	0
0	54708	9107.926272	0
0	54711	9107.926656	0
0	54715	9107.92704	0
0	54724	9107.934656	0
0	54727	9107.93504	0
0	54734	9107.935424	0
0	54748	9107.943808	0
0	54751	9107.944192	0
0	54755	9107.944576	0
0	54764	9107.952192	0
0	54767	9107.952576	0
0	54774	9107.95296	0
0	54788	9107.961344	0
0	54791	9107.961728	0
0	54795	9107.962112	0
0	54804	9107.969728	0
0	54807	9107.970112	0
0	54814	9107.970496	0
0	55234	9207.97888	0
0	55237	9207.979264	0
0	55241	9207.979648	0
0	55246	9207.987264	0
0	55249	9207.987648	0
0	55256	9207.988032	0
0	55270	9207.996416	0
0	55273	9207.9968	0
0	55277	9207.997184	0
0	55290	9208.0048	0
0	55293	9208.005184	0
0	55300	9208.005568	0
0	55314	9208.013952	0
0	55317	9208.014336	0
0	55321	9208.01472	0
0	55330	9208.022336	0
0	55333	9208.02272	0
0	55340	9208.023104	0
0	55354	9208.031488	0
0	55357	9208.031872	0
0	55361	9208.032256	0
0	55370	9208.039872	0
0	55373	9208.040256	0
0	55380	9208.04064	0
0	55394	9208.049024	0
0	55397	9208.049408	0
0	55401	9208.049792	0
0	55410	9208.057408	0
0	55413	9208.057792	0
0	55420	9208.058176	0
0	55840	9308.06656	0
0	55843	9308.066944	0
0	55847	9308.067328	0
0	55852	9308.074944	0
0	55855	9308.075328	0
0	55862	9308.075712	0
0	55876	9308.084096	0
0	55879	9308.08448	0
0	55883	9308.084864	0
0	55892	9308.09248	0
0	55895	9308.092864	0
0	55902	9308.093248	0
0	55916	9308.101632	0
0	55919	9308.102016	0
0	55923	9308.1024	0
0	55932	9308.110016	0
0	55935	9308.1104	0
0	55942	9308.110784	0
0	55956	9308.119168	0
0	55959	9308.119552	0
0	55963	9308.119936	0
0	55972	9308.127552	0
0	55975	9308.127936	0
0	55982	9308.12832	0
0	55996	9308.136704	0
0	55999	9308.137088	0
0	56003	9308.137472	0
0	56012	9308.145088	0
0	56015	9308.145472	0
0	56022	9308.145856	0
0	56442	9408.15424	0
0	56445	9408.154624	0
0	56449	9408.155008	0
0	56454	9408.162624	0
0	56457	9408.163008	0
0	56464	9408.163392	0
0	56478	9408.171776	0
0	56481	9408.17216	0
0	56485	9408.172544	0
0	56494	9408.18016	0
0	56497	9408.180544	0
0	56504	9408.180928	0
0	56518	9408.189312	0
0	56521	9408.189696	0
0	56525	9408.19008	0
0	56534	9408.197696	0
0	56537	9408.19808	0
0	56544	9408.198464	0
0	56558	9408.206848	0
0	56561	9408.207232	0
0	56565	9408.207616	0
0	56574	9408.215232	0
0	56577	9408.215616	0
0	56584	9408.216	0
0	56598	9408.224384	0
0	56601	9408.224768	0
0	56605	9408.225152	0
0	56614	9408.232768	0
0	56617	9408.233152	0
0	56624	9408.233536	0
0	57044	9508.24192	0
0	57047	9508.242304	0
0	57051	9508.242688	0
0	57056	9508.250304	0
0	57059	9508.250688	0
0	57066	9508.251072	0
0	57080	9508.259456	0
0	57083	9508.25984	0
0	57087	9508.260224	0
0	57096	9508.26784	0
0	57099	9508.268224	0
0	57106	9508.268608	0
0	57120	9508.276992	0
0	57123	9508.277376	0
0	57127	9508.27776	0
0	57136	9508.285376	0
0	57139	9508.28576	0
0	57146	9508.286144	0
0	57160	9508.294528	0
0	57163	9508.294912	0
0	57167	9508.295296	0
0	57176	9508.302912	0
0	57179	9508.303296	0
0	57186	9508.30368	0
0	57200	9508.312064	0
0	57203	9508.312448	0
0	57207	9508.312832	0
0	57216	9508.320448	0
0	57219	9508.320832	0
0	57226	9508.321216	0
0	57646	9608.3296	0
0	57649	9608.329984	0
0	57653	9608.330368	0
0	57658	9608.337984	0
0	57661	9608.338368	0
0	57668	9608.338752	0
0	57682	9608.347136	0
0	57685	9608.34752	0
0	57689	9608.347904	0
0	57698	9608.35552	0
0	57701	9608.355904	0
0	57708	9608.356288	0
0	57722	9608.364672	0
0	57725	9608.365056	0
0	57729	9608.36544	0
0	57738	9608.373056	0
0	57741	9608.37344	0
0	57748	9608.373824	0
0	57762	9608.382208	0
0	57765	9608.382592	0
0	57769	9608.382976	0
0	57778	9608.390592	0
0	57781	9608.390976	0
0	57788	9608.39136	0
0	57802	9608.399744	0
0	57805	9608.400128	0
0	57809	9608.400512	0
0	57818	9608.408128	0
0	57821	9608.408512	0
0	57828	9608.408896	0
0	58248	9708.41728	0
0	58251	9708.417664	0
0	58255	9708.418048	0
0	58260	9708.425664	0
0	58263	9708.426048	0
0	58270	9708.426432	0
0	58284	9708.434816	0
0	58287	9708.4352	0
0	58291	9708.435584	0
0	58300	9708.4432	0
0	58303	9708.443584	0
0	58310	9708.443968	0
0	58324	9708.452352	0
0	58327	9708.452736	0
0	58331	9708.45312	0
0	58340	9708.460736	0
0	58343	9708.46112	0
0	58350	9708.461504	0
0	58364	9708.469888	0
0	58367	9708.470272	0
0	58371	9708.470656	0
0	58380	9708.478272	0
0	58383	9708.478656	0
0	58390	9708.47904	0
0	58404	9708.487424	0
0	58407	9708.487808	0
0	58411	9708.488192	0
0	58420	9708.495808	0
0	58423	9708.496192	0
0	58430	9708.496576	0
0	58850	9808.50496	0
0	58853	9808.505344	0
0	58857	9808.505728	0
0	58862	9808.513344	0
0	58865	9808.513728	0
0	58872	9808.514112	0
0	58886	9808.522496	0
0	58889	9808.52288	0
0	58893	9808.523264	0
0	58902	9808.53088	0
0	58905	9808.531264	0
0	58912	9808.531648	0
0	58926	9808.540032	0
0	58929	9808.540416	0
0	58933	9808.5408	0
0	58942	9808.548416	0
0	58945	9808.5488	0
0	58952	9808.549184	0
0	58966	9808.557568	0
0	58969	9808.557952	0
0	58973	9808.558336	0
0	58982	9808.565952	0
0	58985	9808.566336	0
0	58992	9808.56672	0
0	59006	9808.575104	0
0	59009	9808.575488	0
0	59013	9808.575872	0
0	59022	9808.583488	0
0	59025	9808.583872	0
0	59032	9808.584256	0
0	59452	9908.59264	0
0	59455	9908.593024	0
0	59459	9908.593408	0
0	59464	9908.601024	0
0	59467	9908.601408	0
0	59474	9908.601792	0
0	59488	9908.610176	0
0	59491	9908.61056	0
0	59495	9908.610944	0
0	59504	9908.61856	0
0	59507	9908.618944	0
0	59514	9908.619328	0
0	59528	9908.627712	0
0	59531	9908.628096	0
0	59535	9908.62848	0
0	59544	9908.636096	0
0	59547	9908.63648	0
0	59554	9908.636864	0
0	59568	9908.645248	0
0	59571	9908.645632	0
0	59575	9908.646016	0
0	59584	9908.653632	0
0	59587	9908.654016	0
0	59594	9908.6544	0
0	59608	9908.662784	0
0	59611	9908.663168	0
0	59615	9908.663552	0
0	59624	9908.671168	0
0	59627	9908.671552	0
0	59634	9908.671936	0
0	60054	10008.68032	0
0	60057	10008.680704	0
0	60061	10008.681088	0
0	60066	10008.688704	0
0	60069	10008.689088	0
0	60076	10008.689472	0
0	60090	10008.697856	0
0	60093	10008.69824	0
0	60097	10008.698624	0
0	60106	10008.70624	0
0	60109	10008.706624	0
0	60116	10008.707008	0
0	60130	10008.715392	0
0	60133	10008.715776	0
0	60137	10008.71616	0
0	60146	10008.723776	0
0	60149	10008.72416	0
0	60156	10008.724544	0
0	60170	10008.732928	0
0	60173	10008.733312	0
0	60177	10008.733696	0
0	60186	10008.741312	0
0	60189	10008.741696	0
0	60196	10008.74208	0
0	60210	10008.750464	0
0	60213	10008.750848	0
0	60217	10008.751232	0
0	60226	10008.758848	0
0	60229	10008.759232	0
0	60236	10008.759616	0
0	60656	10108.768	0
0	60659	10108.768384	0
0	60663	10108.768768	0
0	60668	10108.776384	0
0	60671	10108.776768	0
0	60678	10108.777152	0
0	60692	10108.785536	0
0	60695	10108.78592	0
0	60699	10108.786304	0
0	60708	10108.79392	0
0	60711	10108.794304	0
0	60718	10108.794688	0
0	60732	10108.803072	0
0	60735	10108.803456	0
0	60739	10108.80384	0
0	60748	10108.811456	0
0	60751	10108.81184	0
0	60758	10108.812224	0
0	60772	10108.820608	0
0	60775	10108.820992	0
0	60779	10108.821376	0
0	60788	10108.828992	0
0	60791	10108.829376	0
0	60798	10108.82976	0
0	60812	10108.838144	0
0	60815	10108.838528	0
0	60819	10108.838912	0
0	60828	10108.846528	0
0	60831	10108.846912	0
0	60838	10108.847296	0
0	61258	10208.85568	0
0	61261	10208.856064	0
0	61265	10208.856448	0
0	61270	10208.864064	0
0	61273	10208.864448	0
0	61280	10208.864832	0
0	61294	10208.873216	0
0	61297	10208.8736	0
0	61301	10208.873984	0
0	61310	10208.8816	0
0	61313	10208.881984	0
0	61320	10208.882368	0
0	61334	10208.890752	0
0	61337	10208.891136	0
0	61341	10208.89152	0
0	61350	10208.899136	0
0	61353	10208.89952	0
0	61360	10208.899904	0
0	61374	10208.908288	0
0	61377	10208.908672	0
0	61381	10208.909056	0
0	61390	10208.916672	0
0	61393	10208.917056	0
0	61400	10208.91744	0
0	61414	10208.925824	0
0	61417	10208.926208	0
0	61421	10208.926592	0
0	61430	10208.934208	0
0	61433	10208.934592	0
0	61440	10208.934976	0
0	61860	10308.94336	0
0	61863	10308.943744	0
0	61867	10308.944128	0
0	61872	10308.951744	0
0	61875	10308.952128	0
0	61882	10308.952512	0
0	61896	10308.960896	0
0	61899	10308.96128	0
0	61903	10308.961664	0
0	61912	10308.96928	0
0	61915	10308.969664	0
0	61922	10308.970048	0
0	61936	10308.978432	0
0	61939	10308.978816	0
0	61943	10308.9792	0
0	61952	10308.986816	0
0	61955	10308.9872	0
0	61962	10308.987584	0
0	61976	10308.995968	0
0	61979	10308.996352	0
0	61983	10308.996736	0
0	61996	10309.004352	0
0	61999	10309.004736	0
0	62006	10309.00512	0
0	62020	10309.013504	0
0	62023	10309.013888	0
0	62027	10309.014272	0
0	62036	10309.021888	0
0	62039	10309.022272	0
0	62046	10309.022656	0
0	62466	10409.03104	0
0	62469	10409.031424	0
0	62473	10409.031808	0
0	62478	10409.039424	0
0	62481	10409.039808	0
0	62488	10409.040192	0
0	62502	10409.048576	0
0	62505	10409.04896	0
0	62509	10409.049344	0
0	62518	10409.05696	0
0	62521	10409.057344	0
0	62528	10409.057728	0
0	62542	10409.066112	0
0	62545	10409.066496	0
0	62549	10409.06688	0
0	62558	10409.074496	0
0	62561	10409.07488	0
0	62568	10409.075264	0
0	62582	10409.083648	0
0	62585	10409.084032	0
0	62589	10409.084416	0
0	62598	10409.092032	0
0	62601	10409.092416	0
0	62608	10409.0928	0
0	62622	10409.101184	0
0	62625	10409.101568	0
0	62629	10409.101952	0
0	62638	10409.109568	0
0	62641	10409.109952	0
0	62648	10409.110336	0
0	63068	10509.11872	0
0	63071	10509.119104	0
0	63075	10509.119488	0
0	63080	10509.127104	0
0	63083	10509.127488	0
0	63090	10509.127872	0
0	63104	10509.136256	0
0	63107	10509.13664	0
0	63111	10509.137024	0
0	63120	10509.14464	0
0	63123	10509.145024	0
0	63130	10509.145408	0
0	63144	10509.153792	0
0	63147	10509.154176	0
0	63151	10509.15456	0
0	63160	10509.162176	0
0	63163	10509.16256	0
0	63170	10509.162944	0
0	63184	10509.171328	0
0	63187	10509.171712	0
0	63191	10509.172096	0
0	63200	10509.179712	0
0	63203	10509.180096	0
0	63210	10509.18048	0
0	63224	10509.188864	0
0	63227	10509.189248	0
0	63231	10509.189632	0
0	63240	10509.197248	0
0	63243	10509.197632	0
0	63250	10509.198016	0
0	63670	10609.2064	0
0	63673	10609.206784	0
0	63677	10609.207168	0
0	63682	10609.214784	0
0	63685	10609.215168	0
0	63692	10609.215552	0
0	63706	10609.223936	0
0	63709	10609.22432	0
0	63713	10609.224704	0
0	63722	10609.23232	0
0	63725	10609.232704	0
0	63732	10609.233088	0
0	63746	10609.241472	0
0	63749	10609.241856	0
0	63753	10609.24224	0
0	63762	10609.249856	0
0	63765	10609.25024	0
0	63772	10609.250624	0
0	63786	10609.259008	0
0	63789	10609.259392	0
0	63793	10609.259776	0
0	63802	10609.267392	0
0	63805	10609.267776	0
0	63812	10609.26816	0
0	63826	10609.276544	0
0	63829	10609.276928	0
0	63833	10609.277312	0
0	63842	10609.284928	0
0	63845	10609.285312	0
0	63852	10609.285696	0
0	64272	10709.29408	0
0	64275	10709.294464	0
0	64279	10709.294848	0
0	64284	10709.302464	0
0	64287	10709.302848	0
0	64294	10709.303232	0
0	64308	10709.311616	0
0	64311	10709.312	0
0	64315	10709.312384	0
0	64324	10709.32	0
0	64327	10709.320384	0
0	64334	10709.320768	0
0	64348	10709.329152	0
0	64351	10709.329536	0
0	64355	10709.32992	0
0	64364	10709.337536	0
0	64367	10709.33792	0
0	64374	10709.338304	0
0	64388	10709.346688	0
0	64391	10709.347072	0
0	64395	10709.347456	0
0	64404	10709.355072	0
0	64407	10709.355456	0
0	64414	10709.35584	0
0	64428	10709.364224	0
0	64431	10709.364608	0
0	64435	10709.364992	0
0	64444	10709.372608	0
0	64447	10709.372992	0
0	64454	10709.373376	0
0	64874	10809.38176	0
0	64877	10809.382144	0
0	64881	10809.382528	0
0	64886	10809.390144	0
0	64889	10809.390528	0
0	64896	10809.390912	0
0	64910	10809.399296	0
0	64913	10809.39968	0
0	64917	10809.400064	0
0	64926	10809.40768	0
0	64929	10809.408064	0
0	64936	10809.408448	0
0	64950	10809.416832	0
0	64953	10809.417216	0
0	64957	10809.4176	0
0	64966	10809.425216	0
0	64969	10809.4256	0
0	64976	10809.425984	0
0	64990	10809.434368	0
0	64993	10809.434752	0
0	64997	10809.435136	0
0	65006	10809.442752	0
0	65009	10809.443136	0
0	65016	10809.44352	0
0	65030	10809.451904	0
0	65033	10809.452288	0
0	65037	10809.452672	0
0	65046	10809.460288	0
0	65049	10809.460672	0
0	65056	10809.461056	0
0	65476	10909.46944	0
0	65479	10909.469824	0
0	65483	10909.470208	0
0	65488	10909.477824	0
0	65491	10909.478208	0
0	65498	10909.478592	0
0	65512	10909.486976	0
0	65515	10909.48736	0
0	65519	10909.487744	0
0	65528	10909.49536	0
0	65531	10909.495744	0
0	65538	10909.496128	0
0	65552	10909.504512	0
0	65555	10909.504896	0
0	65559	10909.50528	0
0	65568	10909.512896	0
0	65571	10909.51328	0
0	65578	10909.513664	0
0	65592	10909.522048	0
0	65595	10909.522432	0
0	65599	10909.522816	0
0	65608	10909.530432	0
0	65611	10909.530816	0
0	65618	10909.5312	0
0	65632	10909.539584	0
0	65635	10909.539968	0
0	65639	10909.540352	0
0	65648	10909.547968	0
0	65651	10909.548352	0
0	65658	10909.548736	0
0	66078	11009.55712	0
0	66081	11009.557504	0
0	66085	11009.557888	0
0	66090	11009.565504	0
0	66093	11009.565888	0
0	66100	11009.566272	0
0	66114	11009.574656	0
0	66117	11009.57504	0
0	66121	11009.575424	0
0	66130	11009.58304	0
0	66133	11009.583424	0
0	66140	11009.583808	0
0	66154	11009.592192	0
0	66157	11009.592576	0
0	66161	11009.59296	0
0	66170	11009.600576	0
0	66173	11009.60096	0
0	66180	11009.601344	0
0	66194	11009.609728	0
0	66197	11009.610112	0
0	66201	11009.610496	0
0	66210	11009.618112	0
0	66213	11009.618496	0
0	66220	11009.61888	0
0	66234	11009.627264	0
0	66237	11009.627648	0
0	66241	11009.628032	0
0	66250	11009.635648	0
0	66253	11009.636032	0
0	66260	11009.636416	0
0	66680	11109.6448	0
0	66683	11109.645184	0
0	66687	11109.645568	0
0	66692	11109.653184	0
0	66695	11109.653568	0
0	66702	11109.653952	0
0	66716	11109.662336	0
0	66719	11109.66272	0
0	66723	11109.663104	0
0	66732	11109.67072	0
0	66735	11109.671104	0
0	66742	11109.671488	0
0	66756	11109.679872	0
0	66759	11109.680256	0
0	66763	11109.68064	0
0	66772	11109.688256	0
0	66775	11109.68864	0
0	66782	11109.689024	0
0	66796	11109.697408	0
0	66799	11109.697792	0
0	66803	11109.698176	0
0	66812	11109.705792	0
0	66815	11109.706176	0
0	66822	11109.70656	0
0	66836	11109.714944	0
0	66839	11109.715328	0
0	66843	11109.715712	0
0	66852	11109.723328	0
0	66855	11109.723712	0
0	66862	11109.724096	0
0	67282	11209.73248	0
0	67285	11209.732864	0
0	67289	11209.733248	0
0	67294	11209.740864	0
0	67297	11209.741248	0
0	67304	11209.741632	0
0	67318	11209.750016	0
0	67321	11209.7504	0
0	67325	11209.750784	0
0	67334	11209.7584	0
0	67337	11209.758784	0
0	67344	11209.759168	0
0	67358	11209.767552	0
0	67361	11209.767936	0
0	67365	11209.76832	0
0	67374	11209.775936	0
0	67377	11209.77632	0
0	67384	11209.776704	0
0	67398	11209.785088	0
0	67401	11209.785472	0
0	67405	11209.785856	0
0	67414	11209.793472	0
0	67417	11209.793856	0
0	67424	11209.79424	0
0	67438	11209.802624	0
0	67441	11209.803008	0
0	67445	11209.803392	0
0	67454	11209.811008	0
0	67457	11209.811392	0
0	67464	11209.811776	0
0	67884	11309.82016	0
0	67887	11309.820544	0
0	67891	11309.820928	0
0	67896	11309.828544	0
0	67899	11309.828928	0
0	67906	11309.829312	0
0	67920	11309.837696	0
0	67923	11309.83808	0
0	67927	11309.838464	0
0	67936	11309.84608	0
0	67939	11309.846464	0
0	67946	11309.846848	0
0	67960	11309.855232	0
0	67963	11309.855616	0
0	67967	11309.856	0
0	67976	11309.863616	0
0	67979	11309.864	0
0	67986	11309.864384	0
0	68000	11309.872768	0
0	68003	11309.873152	0
0	68007	11309.873536	0
0	68016	11309.881152	0
0	68019	11309.881536	0
0	68026	11309.88192	0
0	68040	11309.890304	0
0	68043	11309.890688	0
0	68047	11309.891072	0
0	68056	11309.898688	0
0	68059	11309.899072	0
0	68066	11309.899456	0
0	68486	11409.90784	0
0	68489	11409.908224	0
0	68493	11409.908608	0
0	68498	11409.916224	0
0	68501	11409.916608	0
0	68508	11409.916992	0
0	68522	11409.925376	0
0	68525	11409.92576	0
0	68529	11409.926144	0
0	68538	11409.93376	0
0	68541	11409.934144	0
0	68548	11409.934528	0
0	68562	11409.942912	0
0	68565	11409.943296	0
0	68569	11409.94368	0
0	68578	11409.951296	0
0	68581	11409.95168	0
0	68588	11409.952064	0
0	68602	11409.960448	0
0	68605	11409.960832	0
[...]
1	180741	30225.90944	0.9932788170718
1	180748	30225.909824	0.99327956989247
1	180762	30225.918208	0.99328032254452
1	180765	30225.918592	0.993281075028
1	180769	30225.918976	0.99328182734296
1	180778	30225.926592	0.99328257948948
1	180781	30225.926976	0.99328333146759
1	180788	30225.92736	0.99328408327737
1	180802	30225.935744	0.99328483491886
1	180805	30225.936128	0.99328558639212
1	180809	30225.936512	0.99328633769721
1	180818	30225.944128	0.99328708883419
1	180821	30225.944512	0.99328783980311
1	180828	30225.944896	0.99328859060403
1	181248	30325.95328	0.993289341237
1	181251	30325.953664	0.99329009170208
1	181255	30325.954048	0.99329084199933
1	181260	30325.961664	0.9932915921288
1	181263	30325.962048	0.99329234209055
1	181270	30325.962432	0.99329309188464
1	181284	30325.970816	0.99329384151112
1	181287	30325.9712	0.99329459097005
1	181291	30325.971584	0.99329534026148
1	181300	30325.9792	0.99329608938547
1	181303	30325.979584	0.99329683834208
1	181310	30325.979968	0.99329758713137
1	181324	30325.988352	0.99329833575338
1	181327	30325.988736	0.99329908420818
1	181331	30325.98912	0.99329983249581
1	181340	30325.996736	0.99330058061635
1	181343	30325.99712	0.99330132856983
1	181350	30325.997504	0.99330207635633
1	181368	30326.005888	0.99330282397589
1	181371	30326.006272	0.99330357142857
1	181375	30326.006656	0.99330431871443
1	181384	30326.014272	0.99330506583352
1	181387	30326.014656	0.9933058127859
1	181394	30326.01504	0.99330655957162
1	181408	30326.023424	0.99330730619074
1	181411	30326.023808	0.99330805264332
1	181415	30326.024192	0.99330879892941
1	181424	30326.031808	0.99330954504906
1	181427	30326.032192	0.99331029100234
1	181434	30326.032576	0.9933110367893
1	181854	30426.04096	0.99331178240999
1	181857	30426.041344	0.99331252786447
1	181861	30426.041728	0.99331327315279
1	181866	30426.049344	0.99331401827502
1	181869	30426.049728	0.9933147632312
1	181876	30426.050112	0.99331550802139
1	181890	30426.058496	0.99331625264565
1	181893	30426.05888	0.99331699710403
1	181897	30426.059264	0.99331774139659
1	181906	30426.06688	0.99331848552339
1	181909	30426.067264	0.99331922948447
1	181916	30426.067648	0.99331997327989
1	181930	30426.076032	0.99332071690972
1	181933	30426.076416	0.993321460374
1	181937	30426.0768	0.99332220367279
1	181946	30426.084416	0.99332294680614
1	181949	30426.0848	0.99332368977412
1	181956	30426.085184	0.99332443257677
1	181970	30426.093568	0.99332517521415
1	181973	30426.093952	0.99332591768632
1	181977	30426.094336	0.99332665999333
1	181986	30426.101952	0.99332740213523
1	181989	30426.102336	0.99332814411209
1	181996	30426.10272	0.99332888592395
1	182010	30426.111104	0.99332962757087
1	182013	30426.111488	0.99333036905291
1	182017	30426.111872	0.99333111037012
1	182026	30426.119488	0.99333185152256
1	182029	30426.119872	0.99333259251028
1	182036	30426.120256	0.99333333333333
1	182456	30526.12864	0.99322297522498
1	182458	30526.12864	0.99311264163519
1	182460	30526.12864	0.99300233255581
1	182462	30526.12864	0.99289204797868
1	182464	30526.12864	0.99278178789561
1	182467	30526.137024	0.99278258938485
1	182470	30526.137408	0.99278339069613
1	182474	30526.137792	0.99278419182948
1	182487	30526.15456	0.99278499278499
1	182490	30526.154944	0.99278579356271
1	182494	30526.155328	0.99278659416269
1	182507	30526.172096	0.992787394585
1	182510	30526.17248	0.99278819482969
1	182514	30526.172864	0.99278899489683
1	182527	30526.189632	0.99278979478647
1	182530	30526.190016	0.99279059449867
1	182534	30526.1904	0.99279139403349
1	182547	30526.207168	0.992792193391
1	182550	30526.207552	0.99279299257124
1	182554	30526.207936	0.99279379157428
1	182968	30626.12864	0.99279459040018
1	182971	30626.129024	0.99279538904899
1	182975	30626.129408	0.99279618752078
1	182988	30626.146176	0.9927969858156
1	182991	30626.14656	0.99279778393352
1	182995	30626.146944	0.99279858187458
1	183008	30626.163712	0.99279937963886
1	183011	30626.164096	0.99280017722641
1	183015	30626.16448	0.99280097463728
1	183028	30626.181248	0.99280177187154
1	183031	30626.181632	0.99280256892924
1	183035	30626.182016	0.99280336581045
1	183048	30626.198784	0.99280416251522
1	183051	30626.199168	0.99280495904361
1	183055	30626.199552	0.99280575539568
1	183069	30626.224704	0.99280655157149
1	183072	30626.225088	0.9928073475711
1	183076	30626.225472	0.99280814339456
1	183089	30626.24224	0.99280893904193
1	183092	30626.242624	0.99280973451327
1	183096	30626.243008	0.99281052980865
1	183109	30626.259776	0.99281132492811
1	183112	30626.26016	0.99281211987172
1	183116	30626.260544	0.99281291463954
1	183129	30626.277312	0.99281370923162
1	183132	30626.277696	0.99281450364802
1	183136	30626.27808	0.9928152978888
1	183149	30626.294848	0.99281609195402
1	183152	30626.295232	0.99281688584374
1	183156	30626.295616	0.99281767955801
1	183570	30726.21632	0.9928184730969
1	183573	30726.216704	0.99281926646045
1	183577	30726.217088	0.99282005964874
1	183590	30726.233856	0.99282085266181
1	183593	30726.23424	0.99282164549972
1	183597	30726.234624	0.99282243816254
1	183610	30726.251392	0.99282323065033
1	183613	30726.251776	0.99282402296313
1	183617	30726.25216	0.992824815101
1	183630	30726.268928	0.99282560706402
1	183633	30726.269312	0.99282639885222
1	183637	30726.269696	0.99282719046568
1	183650	30726.286464	0.99282798190445
1	183653	30726.286848	0.99282877316858
1	183657	30726.287232	0.99282956425814
1	183671	30726.312384	0.99283035517317
1	183674	30726.312768	0.99283114591375
1	183678	30726.313152	0.99283193647993
1	183691	30726.32992	0.99283272687176
1	183694	30726.330304	0.99283351708931
1	183698	30726.330688	0.99283430713262
1	183711	30726.347456	0.99283509700176
1	183714	30726.34784	0.99283588669679
1	183718	30726.348224	0.99283667621777
1	183731	30726.364992	0.99283746556474
1	183734	30726.365376	0.99283825473777
1	183738	30726.36576	0.99283904373692
1	183751	30726.382528	0.99283983256224
1	183754	30726.382912	0.99284062121379
1	183758	30726.383296	0.99284140969163
1	184172	30826.304	0.99284219799582
1	184175	30826.304384	0.9928429861264
1	184179	30826.304768	0.99284377408345
1	184192	30826.321536	0.99284456186702
1	184195	30826.32192	0.99284534947716
1	184199	30826.322304	0.99284613691393
1	184212	30826.339072	0.9928469241774
1	184215	30826.339456	0.99284771126761
1	184219	30826.33984	0.99284849818462
1	184232	30826.356608	0.99284928492849
1	184235	30826.356992	0.99285007149929
1	184239	30826.357376	0.99285085789705
1	184252	30826.374144	0.99285164412185
1	184255	30826.374528	0.99285243017374
1	184259	30826.374912	0.99285321605278
1	184273	30826.400064	0.99285400175901
1	184276	30826.400448	0.99285478729251
1	184280	30826.400832	0.99285557265333
1	184293	30826.4176	0.99285635784152
1	184296	30826.417984	0.99285714285714
1	184300	30826.418368	0.99285792770025
1	184313	30826.435136	0.99285871237091
1	184316	30826.43552	0.99285949686916
1	184320	30826.435904	0.99286028119508
1	184333	30826.452672	0.99286106534871
1	184336	30826.453056	0.99286184933011
1	184340	30826.45344	0.99286263313934
1	184353	30826.470208	0.99286341677646
1	184356	30826.470592	0.99286420024152
1	184360	30826.470976	0.99286498353458
1	184774	30926.39168	0.99286576665569
1	184777	30926.392064	0.99286654960492
1	184781	30926.392448	0.99286733238231
1	184794	30926.409216	0.99286811498793
1	184797	30926.4096	0.99286889742183
1	184801	30926.409984	0.99286967968407
1	184814	30926.426752	0.99287046177471
1	184817	30926.427136	0.99287124369379
1	184821	30926.42752	0.99287202544139
1	184834	30926.444288	0.99287280701754
1	184837	30926.444672	0.99287358842232
1	184841	30926.445056	0.99287436965578
1	184854	30926.461824	0.99287515071797
1	184857	30926.462208	0.99287593160894
1	184861	30926.462592	0.99287671232877
1	184875	30926.487744	0.99287749287749
1	184878	30926.488128	0.99287827325518
1	184882	30926.488512	0.99287905346188
1	184895	30926.50528	0.99287983349764
1	184898	30926.505664	0.99288061336254
1	184902	30926.506048	0.99288139305662
1	184915	30926.522816	0.99288217257994
1	184918	30926.5232	0.99288295193255
1	184922	30926.523584	0.99288373111452
1	184935	30926.540352	0.99288451012589
1	184938	30926.540736	0.99288528896673
1	184942	30926.54112	0.99288606763708
1	184955	30926.557888	0.99288684613701
1	184958	30926.558272	0.99288762446657
1	184962	30926.558656	0.99288840262582
1	185376	31026.47936	0.99288918061481
1	185379	31026.479744	0.9928899584336
1	185383	31026.480128	0.99289073608225
1	185396	31026.496896	0.9928915135608
1	185399	31026.49728	0.99289229086933
1	185403	31026.497664	0.99289306800787
1	185416	31026.514432	0.9928938449765
1	185419	31026.514816	0.99289462177525
1	185423	31026.5152	0.9928953984042
1	185436	31026.531968	0.99289617486339
1	185439	31026.532352	0.99289695115288
1	185443	31026.532736	0.99289772727273
1	185456	31026.549504	0.99289850322299
1	185459	31026.549888	0.99289927900371
1	185463	31026.550272	0.99290005461496
1	185477	31026.575424	0.99290083005679
1	185480	31026.575808	0.99290160532926
1	185484	31026.576192	0.99290238043241
1	185497	31026.59296	0.99290315536631
1	185500	31026.593344	0.992903930131
1	185504	31026.593728	0.99290470472656
1	185517	31026.610496	0.99290547915302
1	185520	31026.61088	0.99290625341046
1	185524	31026.611264	0.99290702749891
1	185537	31026.628032	0.99290780141844
1	185540	31026.628416	0.9929085751691
1	185544	31026.6288	0.99290934875095
1	185557	31026.645568	0.99291012216405
1	185560	31026.645952	0.99291089540844
1	185564	31026.646336	0.99291166848419
1	185978	31126.56704	0.99291244139134
1	185981	31126.567424	0.99291321412996
1	185985	31126.567808	0.9929139867001
1	185998	31126.584576	0.99291475910181
1	186001	31126.58496	0.99291553133515
1	186005	31126.585344	0.99291630340017
1	186018	31126.602112	0.99291707529694
1	186021	31126.602496	0.9929178470255
1	186025	31126.60288	0.9929186185859
1	186038	31126.619648	0.99291938997821
1	186041	31126.620032	0.99292016120248
1	186045	31126.620416	0.99292093225877
1	186058	31126.637184	0.99292170314712
1	186061	31126.637568	0.9929224738676
1	186065	31126.637952	0.99292324442025
1	186079	31126.663104	0.99292401480514
1	186082	31126.663488	0.99292478502231
1	186086	31126.663872	0.99292555507183
1	186099	31126.68064	0.99292632495375
1	186102	31126.681024	0.99292709466812
1	186106	31126.681408	0.99292786421499
1	186119	31126.698176	0.99292863359443
1	186122	31126.69856	0.99292940280648
1	186126	31126.698944	0.99293017185121
1	186139	31126.715712	0.99293094072866
1	186142	31126.716096	0.99293170943889
1	186146	31126.71648	0.99293247798195
1	186159	31126.733248	0.9929332463579
1	186162	31126.733632	0.9929340145668
1	186166	31126.734016	0.9929347826087
1	186580	31226.65472	0.99293555048364
1	186583	31226.655104	0.9929363181917
1	186587	31226.655488	0.99293708573291
1	186600	31226.672256	0.99293785310734
1	186603	31226.67264	0.99293862031505
1	186607	31226.673024	0.99293938735607
1	186620	31226.689792	0.99294015423048
1	186623	31226.690176	0.99294092093831
1	186627	31226.69056	0.99294168747964
1	186640	31226.707328	0.99294245385451
1	186643	31226.707712	0.99294322006297
1	186647	31226.708096	0.99294398610508
1	186660	31226.724864	0.9929447519809
1	186663	31226.725248	0.99294551769047
1	186667	31226.725632	0.99294628323386
1	186681	31226.750784	0.99294704861111
1	186684	31226.751168	0.99294781382228
1	186688	31226.751552	0.99294857886743
1	186701	31226.76832	0.99294934374661
1	186704	31226.768704	0.99295010845987
1	186708	31226.769088	0.99295087300727
1	186721	31226.785856	0.99295163738885
1	186724	31226.78624	0.99295240160468
1	186728	31226.786624	0.99295316565481
1	186741	31226.803392	0.9929539295393
1	186744	31226.803776	0.99295469325818
1	186748	31226.80416	0.99295545681153
1	186761	31226.820928	0.99295622019939
1	186764	31226.821312	0.99295698342182
1	186768	31226.821696	0.99295774647887
1	187182	31326.7424	0.9929585093706
1	187185	31326.742784	0.99295927209705
1	187189	31326.743168	0.99296003465829
1	187202	31326.759936	0.99296079705436
1	187205	31326.76032	0.99296155928533
1	187209	31326.760704	0.99296232135123
1	187222	31326.777472	0.99296308325214
1	187225	31326.777856	0.99296384498809
1	187229	31326.77824	0.99296460655915
1	187242	31326.795008	0.99296536796537
1	187245	31326.795392	0.9929661292068
1	187249	31326.795776	0.99296689028349
1	187262	31326.812544	0.9929676511955
1	187265	31326.812928	0.99296841194288
1	187269	31326.813312	0.99296917252569
1	187283	31326.838464	0.99296993294398
1	187286	31326.838848	0.99297069319779
1	187290	31326.839232	0.9929714532872
1	187303	31326.856	0.99297221321224
1	187306	31326.856384	0.99297297297297
1	187310	31326.856768	0.99297373256945
1	187323	31326.873536	0.99297449200173
1	187326	31326.87392	0.99297525126986
1	187330	31326.874304	0.99297601037389
1	187343	31326.891072	0.99297676931388
1	187346	31326.891456	0.99297752808989
1	187350	31326.89184	0.99297828670196
1	187363	31326.908608	0.99297904515014
1	187366	31326.908992	0.9929798034345
1	187370	31326.909376	0.99298056155508
1	187784	31426.83008	0.99298131951193
1	187787	31426.830464	0.99298207730512
1	187791	31426.830848	0.99298283493469
1	187804	31426.847616	0.99298359240069
1	187807	31426.848	0.99298434970318
1	187811	31426.848384	0.99298510684222
1	187824	31426.865152	0.99298586381785
1	187827	31426.865536	0.99298662063013
1	187831	31426.86592	0.9929873772791
1	187844	31426.882688	0.99298813376483
1	187847	31426.883072	0.99298889008737
1	187851	31426.883456	0.99298964624676
1	187864	31426.900224	0.99299040224307
1	187867	31426.900608	0.99299115807634
1	187871	31426.900992	0.99299191374663
1	187885	31426.926144	0.99299266925399
1	187888	31426.926528	0.99299342459847
1	187892	31426.926912	0.99299417978013
1	187905	31426.94368	0.99299493479901
1	187908	31426.944064	0.99299568965517
1	187912	31426.944448	0.99299644434867
1	187925	31426.961216	0.99299719887955
1	187928	31426.9616	0.99299795324787
1	187932	31426.961984	0.99299870745368
1	187945	31426.978752	0.99299946149704
1	187948	31426.979136	0.99300021537799
1	187952	31426.97952	0.99300096909659
1	187965	31426.996288	0.99300172265289
1	187968	31426.996672	0.99300247604694
1	187972	31426.997056	0.99300322927879
1	188386	31526.91776	0.99300398234851
1	188389	31526.918144	0.99300473525613
1	188393	31526.918528	0.99300548800172
1	188406	31526.935296	0.99300624058532
1	188409	31526.93568	0.99300699300699
1	188413	31526.936064	0.99300774526678
1	188426	31526.952832	0.99300849736474
1	188429	31526.953216	0.99300924930092
1	188433	31526.9536	0.99301000107538
1	188446	31526.970368	0.99301075268817
1	188449	31526.970752	0.99301150413934
1	188453	31526.971136	0.99301225542894
1	188466	31526.987904	0.99301300655702
1	188469	31526.988288	0.99301375752365
1	188473	31526.988672	0.99301450832886
1	188491	31527.013824	0.99301525897271
1	188494	31527.014208	0.99301600945525
1	188498	31527.014592	0.99301675977654
1	188511	31527.03136	0.99301750993662
1	188514	31527.031744	0.99301825993555
1	188518	31527.032128	0.99301900977339
1	188531	31527.048896	0.99301975945017
1	188534	31527.04928	0.99302050896596
1	188538	31527.049664	0.99302125832081
1	188551	31527.066432	0.99302200751476
1	188554	31527.066816	0.99302275654787
1	188558	31527.0672	0.9930235054202
1	188571	31527.083968	0.99302425413179
1	188574	31527.084352	0.99302500268269
1	188578	31527.084736	0.99302575107296
1	188992	31627.00544	0.99302649930265
1	188995	31627.005824	0.99302724737181
1	188999	31627.006208	0.99302799528049
1	189012	31627.022976	0.99302874302874
1	189015	31627.02336	0.99302949061662
1	189019	31627.023744	0.99303023804418
1	189032	31627.040512	0.99303098531146
1	189035	31627.040896	0.99303173241852
1	189039	31627.04128	0.99303247936542
1	189052	31627.058048	0.9930332261522
1	189055	31627.058432	0.99303397277891
1	189059	31627.058816	0.99303471924561
1	189072	31627.075584	0.99303546555234
1	189075	31627.075968	0.99303621169916
1	189079	31627.076352	0.99303695768613
1	189093	31627.101504	0.99303770351328
1	189096	31627.101888	0.99303844918068
1	189100	31627.102272	0.99303919468837
1	189113	31627.11904	0.99303994003641
1	189116	31627.119424	0.99304068522484
1	189120	31627.119808	0.99304143025372
1	189133	31627.136576	0.9930421751231
1	189136	31627.13696	0.99304291983303
1	189140	31627.137344	0.99304366438356
1	189153	31627.154112	0.99304440877475
1	189156	31627.154496	0.99304515300663
1	189160	31627.15488	0.99304589707928
1	189173	31627.171648	0.99304664099273
1	189176	31627.172032	0.99304738474703
1	189180	31627.172416	0.99304812834225
1	189594	31727.09312	0.99304887177842
1	189597	31727.093504	0.9930496150556
1	189601	31727.093888	0.99305035817385
1	189614	31727.110656	0.99305110113321
1	189617	31727.11104	0.99305184393373
1	189621	31727.111424	0.99305258657546
1	189634	31727.128192	0.99305332905846
1	189637	31727.128576	0.99305407138277
1	189641	31727.12896	0.99305481354846
1	189654	31727.145728	0.99305555555556
1	189657	31727.146112	0.99305629740412
1	189661	31727.146496	0.99305703909421
1	189674	31727.163264	0.99305778062587
1	189677	31727.163648	0.99305852199915
1	189681	31727.164032	0.99305926321409
1	189695	31727.189184	0.99306000427077
1	189698	31727.189568	0.99306074516921
1	189702	31727.189952	0.99306148590948
1	189715	31727.20672	0.99306222649162
1	189718	31727.207104	0.99306296691569
1	189722	31727.207488	0.99306370718173
1	189735	31727.224256	0.9930644472898
1	189738	31727.22464	0.99306518723994
1	189742	31727.225024	0.99306592703222
1	189755	31727.241792	0.99306666666667
1	189758	31727.242176	0.99306740614334
1	189762	31727.24256	0.9930681454623
1	189775	31727.259328	0.99306888462359
1	189778	31727.259712	0.99306962362725
1	189782	31727.260096	0.99307036247335
1	190196	31827.1808	0.99296450271826
1	190198	31827.1808	0.99285866552974
1	190200	31827.1808	0.99275285090056
1	190202	31827.1808	0.99264705882353
1	190204	31827.1808	0.99254128929142
1	190207	31827.276864	0.99254208395483
1	190210	31827.277248	0.99254287844892
1	190214	31827.277632	0.99254367277375
1	190227	31827.2944	0.99254446692939
1	190230	31827.294784	0.99254526091587
1	190234	31827.295168	0.99254605473326
1	190247	31827.311936	0.9925468483816
1	190250	31827.31232	0.99254764186096
1	190254	31827.312704	0.99254843517139
1	190267	31827.329472	0.99254922831293
1	190270	31827.329856	0.99255002128565
1	190274	31827.33024	0.9925508140896
1	190287	31827.347008	0.99255160672484
1	190290	31827.347392	0.9925523991914
1	190294	31827.347776	0.99255319148936
1	190708	31927.1808	0.99255398361876
1	190711	31927.181184	0.99255477557966
1	190715	31927.181568	0.99255556737212
1	190728	31927.198336	0.99255635899617
1	190731	31927.19872	0.99255715045189
1	190735	31927.199104	0.99255794173932
1	190748	31927.215872	0.99255873285851
1	190751	31927.216256	0.99255952380952
1	190755	31927.21664	0.99256031459241
1	190768	31927.233408	0.99256110520723
1	190771	31927.233792	0.99256189565402
1	190775	31927.234176	0.99256268593285
1	190788	31927.250944	0.99256347604377
1	190791	31927.251328	0.99256426598683
1	190795	31927.251712	0.99256505576208
1	190809	31927.364544	0.99256584536958
1	190812	31927.364928	0.99256663480939
1	190816	31927.365312	0.99256742408155
1	190829	31927.38208	0.99256821318611
1	190832	31927.382464	0.99256900212314
1	190836	31927.382848	0.99256979089269
1	190849	31927.399616	0.9925705794948
1	190852	31927.4	0.99257136792953
1	190856	31927.400384	0.99257215619694
1	190869	31927.417152	0.99257294429708
1	190872	31927.417536	0.99257373223
1	190876	31927.41792	0.99257451999576
1	190889	31927.434688	0.9925753075944
1	190892	31927.435072	0.99257609502598
1	190896	31927.435456	0.99257688229056

